
---------- Begin Simulation Statistics ----------
final_tick                                  950386000                       # Number of ticks from beginning of simulation (restored from checkpoints and never reset)
host_inst_rate                                  26884                       # Simulator instruction rate (inst/s)
host_mem_usage                                2209500                       # Number of bytes of host memory used
host_op_rate                                    49047                       # Simulator op (including micro ops) rate (op/s)
host_seconds                                     1.84                       # Real time elapsed on the host
host_tick_rate                              516480150                       # Simulator tick rate (ticks/s)
sim_freq                                 1000000000000                       # Frequency of simulated ticks
sim_insts                                       49462                       # Number of instructions simulated
sim_ops                                         90251                       # Number of ops (including micro ops) simulated
sim_seconds                                  0.000950                       # Number of seconds simulated
sim_ticks                                   950386000                       # Number of ticks simulated
system.cpu.cc_regfile_reads                     51480                       # number of cc regfile reads
system.cpu.cc_regfile_writes                    39587                       # number of cc regfile writes
system.cpu.committedInsts                       49462                       # Number of Instructions Simulated
system.cpu.committedOps                         90251                       # Number of Ops (including micro ops) Simulated
system.cpu.cpi                              19.214488                       # CPI: Cycles Per Instruction
system.cpu.cpi_total                        19.214488                       # CPI: Total CPI of All Threads
system.cpu.fp_regfile_reads                      1504                       # number of floating regfile reads
system.cpu.fp_regfile_writes                      696                       # number of floating regfile writes
system.cpu.idleCycles                          534678                       # Total number of cycles that the CPU has spent unscheduled due to idling
system.cpu.iew.branchMispredicts                  617                       # Number of branch mispredicts detected at execute
system.cpu.iew.exec_branches                    10430                       # Number of branches executed
system.cpu.iew.exec_nop                             0                       # number of nop insts executed
system.cpu.iew.exec_rate                     0.103596                       # Inst execution rate
system.cpu.iew.exec_refs                         5692                       # number of memory reference insts executed
system.cpu.iew.exec_stores                       2138                       # Number of stores executed
system.cpu.iew.exec_swp                             0                       # number of swp insts executed
system.cpu.iew.iewBlockCycles                    1376                       # Number of cycles IEW is blocking
system.cpu.iew.iewDispLoadInsts                  2784                       # Number of dispatched load instructions
system.cpu.iew.iewDispNonSpecInsts                  2                       # Number of dispatched non-speculative instructions
system.cpu.iew.iewDispSquashedInsts                 1                       # Number of squashed instructions skipped by dispatch
system.cpu.iew.iewDispStoreInsts                 2399                       # Number of dispatched store instructions
system.cpu.iew.iewDispatchedInsts              100122                       # Number of instructions dispatched to IQ
system.cpu.iew.iewExecLoadInsts                  3554                       # Number of load instructions executed
system.cpu.iew.iewExecSquashedInsts               211                       # Number of squashed instructions skipped in execute
system.cpu.iew.iewExecutedInsts                 98456                       # Number of executed instructions
system.cpu.iew.iewIQFullEvents                      8                       # Number of times the IQ has become full, causing a stall
system.cpu.iew.iewIdleCycles                        0                       # Number of cycles IEW is idle
system.cpu.iew.iewLSQFullEvents                  2750                       # Number of times the LSQ has become full, causing a stall
system.cpu.iew.iewSquashCycles                    594                       # Number of cycles IEW is squashing
system.cpu.iew.iewUnblockCycles                  2875                       # Number of cycles IEW is unblocking
system.cpu.iew.memOrderViolationEvents             14                       # Number of memory order violations
system.cpu.iew.predictedNotTakenIncorrect          546                       # Number of branches that were predicted not taken incorrectly
system.cpu.iew.predictedTakenIncorrect             71                       # Number of branches that were predicted taken incorrectly
system.cpu.iew.wb_consumers                     71965                       # num instructions consuming a value
system.cpu.iew.wb_count                         96460                       # cumulative count of insts written-back
system.cpu.iew.wb_fanout                     0.893990                       # average fanout of values written-back
system.cpu.iew.wb_producers                     64336                       # num instructions producing a value
system.cpu.iew.wb_rate                       0.101495                       # insts written-back per cycle
system.cpu.iew.wb_sent                          96620                       # cumulative count of insts sent to commit
system.cpu.int_regfile_reads                   131232                       # number of integer regfile reads
system.cpu.int_regfile_writes                   82768                       # number of integer regfile writes
system.cpu.ipc                               0.052044                       # IPC: Instructions Per Cycle
system.cpu.ipc_total                         0.052044                       # IPC: Total IPC of All Threads
system.cpu.iq.FU_type_0::No_OpClass               647      0.66%      0.66% # Type of FU issued
system.cpu.iq.FU_type_0::IntAlu                 91661     92.90%     93.56% # Type of FU issued
system.cpu.iq.FU_type_0::IntMult                    5      0.01%     93.56% # Type of FU issued
system.cpu.iq.FU_type_0::IntDiv                    21      0.02%     93.58% # Type of FU issued
system.cpu.iq.FU_type_0::FloatAdd                 136      0.14%     93.72% # Type of FU issued
system.cpu.iq.FU_type_0::FloatCmp                   0      0.00%     93.72% # Type of FU issued
system.cpu.iq.FU_type_0::FloatCvt                   0      0.00%     93.72% # Type of FU issued
system.cpu.iq.FU_type_0::FloatMult                  0      0.00%     93.72% # Type of FU issued
system.cpu.iq.FU_type_0::FloatMultAcc               0      0.00%     93.72% # Type of FU issued
system.cpu.iq.FU_type_0::FloatDiv                   0      0.00%     93.72% # Type of FU issued
system.cpu.iq.FU_type_0::FloatMisc                  0      0.00%     93.72% # Type of FU issued
system.cpu.iq.FU_type_0::FloatSqrt                  0      0.00%     93.72% # Type of FU issued
system.cpu.iq.FU_type_0::SimdAdd                    0      0.00%     93.72% # Type of FU issued
system.cpu.iq.FU_type_0::SimdAddAcc                 0      0.00%     93.72% # Type of FU issued
system.cpu.iq.FU_type_0::SimdAlu                  150      0.15%     93.87% # Type of FU issued
system.cpu.iq.FU_type_0::SimdCmp                    0      0.00%     93.87% # Type of FU issued
system.cpu.iq.FU_type_0::SimdCvt                   46      0.05%     93.92% # Type of FU issued
system.cpu.iq.FU_type_0::SimdMisc                 216      0.22%     94.14% # Type of FU issued
system.cpu.iq.FU_type_0::SimdMult                   0      0.00%     94.14% # Type of FU issued
system.cpu.iq.FU_type_0::SimdMultAcc                0      0.00%     94.14% # Type of FU issued
system.cpu.iq.FU_type_0::SimdShift                  0      0.00%     94.14% # Type of FU issued
system.cpu.iq.FU_type_0::SimdShiftAcc               0      0.00%     94.14% # Type of FU issued
system.cpu.iq.FU_type_0::SimdDiv                    0      0.00%     94.14% # Type of FU issued
system.cpu.iq.FU_type_0::SimdSqrt                   0      0.00%     94.14% # Type of FU issued
system.cpu.iq.FU_type_0::SimdFloatAdd               0      0.00%     94.14% # Type of FU issued
system.cpu.iq.FU_type_0::SimdFloatAlu               0      0.00%     94.14% # Type of FU issued
system.cpu.iq.FU_type_0::SimdFloatCmp               0      0.00%     94.14% # Type of FU issued
system.cpu.iq.FU_type_0::SimdFloatCvt               0      0.00%     94.14% # Type of FU issued
system.cpu.iq.FU_type_0::SimdFloatDiv               0      0.00%     94.14% # Type of FU issued
system.cpu.iq.FU_type_0::SimdFloatMisc              0      0.00%     94.14% # Type of FU issued
system.cpu.iq.FU_type_0::SimdFloatMult              0      0.00%     94.14% # Type of FU issued
system.cpu.iq.FU_type_0::SimdFloatMultAcc            0      0.00%     94.14% # Type of FU issued
system.cpu.iq.FU_type_0::SimdFloatSqrt              0      0.00%     94.14% # Type of FU issued
system.cpu.iq.FU_type_0::SimdReduceAdd              0      0.00%     94.14% # Type of FU issued
system.cpu.iq.FU_type_0::SimdReduceAlu              0      0.00%     94.14% # Type of FU issued
system.cpu.iq.FU_type_0::SimdReduceCmp              0      0.00%     94.14% # Type of FU issued
system.cpu.iq.FU_type_0::SimdFloatReduceAdd            0      0.00%     94.14% # Type of FU issued
system.cpu.iq.FU_type_0::SimdFloatReduceCmp            0      0.00%     94.14% # Type of FU issued
system.cpu.iq.FU_type_0::SimdAes                    0      0.00%     94.14% # Type of FU issued
system.cpu.iq.FU_type_0::SimdAesMix                 0      0.00%     94.14% # Type of FU issued
system.cpu.iq.FU_type_0::SimdSha1Hash               0      0.00%     94.14% # Type of FU issued
system.cpu.iq.FU_type_0::SimdSha1Hash2              0      0.00%     94.14% # Type of FU issued
system.cpu.iq.FU_type_0::SimdSha256Hash             0      0.00%     94.14% # Type of FU issued
system.cpu.iq.FU_type_0::SimdSha256Hash2            0      0.00%     94.14% # Type of FU issued
system.cpu.iq.FU_type_0::SimdShaSigma2              0      0.00%     94.14% # Type of FU issued
system.cpu.iq.FU_type_0::SimdShaSigma3              0      0.00%     94.14% # Type of FU issued
system.cpu.iq.FU_type_0::SimdPredAlu                0      0.00%     94.14% # Type of FU issued
system.cpu.iq.FU_type_0::MemRead                 3469      3.52%     97.65% # Type of FU issued
system.cpu.iq.FU_type_0::MemWrite                1627      1.65%     99.30% # Type of FU issued
system.cpu.iq.FU_type_0::FloatMemRead             155      0.16%     99.46% # Type of FU issued
system.cpu.iq.FU_type_0::FloatMemWrite            534      0.54%    100.00% # Type of FU issued
system.cpu.iq.FU_type_0::IprAccess                  0      0.00%    100.00% # Type of FU issued
system.cpu.iq.FU_type_0::InstPrefetch               0      0.00%    100.00% # Type of FU issued
system.cpu.iq.FU_type_0::total                  98667                       # Type of FU issued
system.cpu.iq.fp_alu_accesses                    1396                       # Number of floating point alu accesses
system.cpu.iq.fp_inst_queue_reads                2781                       # Number of floating instruction queue reads
system.cpu.iq.fp_inst_queue_wakeup_accesses         1272                       # Number of floating instruction queue wakeup accesses
system.cpu.iq.fp_inst_queue_writes               1463                       # Number of floating instruction queue writes
system.cpu.iq.fu_busy_cnt                         126                       # FU busy when requested
system.cpu.iq.fu_busy_rate                   0.001277                       # FU busy rate (busy events/executed inst)
system.cpu.iq.fu_full::No_OpClass                   0      0.00%      0.00% # attempts to use FU when none available
system.cpu.iq.fu_full::IntAlu                      71     56.35%     56.35% # attempts to use FU when none available
system.cpu.iq.fu_full::IntMult                      0      0.00%     56.35% # attempts to use FU when none available
system.cpu.iq.fu_full::IntDiv                       0      0.00%     56.35% # attempts to use FU when none available
system.cpu.iq.fu_full::FloatAdd                     0      0.00%     56.35% # attempts to use FU when none available
system.cpu.iq.fu_full::FloatCmp                     0      0.00%     56.35% # attempts to use FU when none available
system.cpu.iq.fu_full::FloatCvt                     0      0.00%     56.35% # attempts to use FU when none available
system.cpu.iq.fu_full::FloatMult                    0      0.00%     56.35% # attempts to use FU when none available
system.cpu.iq.fu_full::FloatMultAcc                 0      0.00%     56.35% # attempts to use FU when none available
system.cpu.iq.fu_full::FloatDiv                     0      0.00%     56.35% # attempts to use FU when none available
system.cpu.iq.fu_full::FloatMisc                    0      0.00%     56.35% # attempts to use FU when none available
system.cpu.iq.fu_full::FloatSqrt                    0      0.00%     56.35% # attempts to use FU when none available
system.cpu.iq.fu_full::SimdAdd                      0      0.00%     56.35% # attempts to use FU when none available
system.cpu.iq.fu_full::SimdAddAcc                   0      0.00%     56.35% # attempts to use FU when none available
system.cpu.iq.fu_full::SimdAlu                      9      7.14%     63.49% # attempts to use FU when none available
system.cpu.iq.fu_full::SimdCmp                      0      0.00%     63.49% # attempts to use FU when none available
system.cpu.iq.fu_full::SimdCvt                      0      0.00%     63.49% # attempts to use FU when none available
system.cpu.iq.fu_full::SimdMisc                     0      0.00%     63.49% # attempts to use FU when none available
system.cpu.iq.fu_full::SimdMult                     0      0.00%     63.49% # attempts to use FU when none available
system.cpu.iq.fu_full::SimdMultAcc                  0      0.00%     63.49% # attempts to use FU when none available
system.cpu.iq.fu_full::SimdShift                    0      0.00%     63.49% # attempts to use FU when none available
system.cpu.iq.fu_full::SimdShiftAcc                 0      0.00%     63.49% # attempts to use FU when none available
system.cpu.iq.fu_full::SimdDiv                      0      0.00%     63.49% # attempts to use FU when none available
system.cpu.iq.fu_full::SimdSqrt                     0      0.00%     63.49% # attempts to use FU when none available
system.cpu.iq.fu_full::SimdFloatAdd                 0      0.00%     63.49% # attempts to use FU when none available
system.cpu.iq.fu_full::SimdFloatAlu                 0      0.00%     63.49% # attempts to use FU when none available
system.cpu.iq.fu_full::SimdFloatCmp                 0      0.00%     63.49% # attempts to use FU when none available
system.cpu.iq.fu_full::SimdFloatCvt                 0      0.00%     63.49% # attempts to use FU when none available
system.cpu.iq.fu_full::SimdFloatDiv                 0      0.00%     63.49% # attempts to use FU when none available
system.cpu.iq.fu_full::SimdFloatMisc                0      0.00%     63.49% # attempts to use FU when none available
system.cpu.iq.fu_full::SimdFloatMult                0      0.00%     63.49% # attempts to use FU when none available
system.cpu.iq.fu_full::SimdFloatMultAcc             0      0.00%     63.49% # attempts to use FU when none available
system.cpu.iq.fu_full::SimdFloatSqrt                0      0.00%     63.49% # attempts to use FU when none available
system.cpu.iq.fu_full::SimdReduceAdd                0      0.00%     63.49% # attempts to use FU when none available
system.cpu.iq.fu_full::SimdReduceAlu                0      0.00%     63.49% # attempts to use FU when none available
system.cpu.iq.fu_full::SimdReduceCmp                0      0.00%     63.49% # attempts to use FU when none available
system.cpu.iq.fu_full::SimdFloatReduceAdd            0      0.00%     63.49% # attempts to use FU when none available
system.cpu.iq.fu_full::SimdFloatReduceCmp            0      0.00%     63.49% # attempts to use FU when none available
system.cpu.iq.fu_full::SimdAes                      0      0.00%     63.49% # attempts to use FU when none available
system.cpu.iq.fu_full::SimdAesMix                   0      0.00%     63.49% # attempts to use FU when none available
system.cpu.iq.fu_full::SimdSha1Hash                 0      0.00%     63.49% # attempts to use FU when none available
system.cpu.iq.fu_full::SimdSha1Hash2                0      0.00%     63.49% # attempts to use FU when none available
system.cpu.iq.fu_full::SimdSha256Hash               0      0.00%     63.49% # attempts to use FU when none available
system.cpu.iq.fu_full::SimdSha256Hash2              0      0.00%     63.49% # attempts to use FU when none available
system.cpu.iq.fu_full::SimdShaSigma2                0      0.00%     63.49% # attempts to use FU when none available
system.cpu.iq.fu_full::SimdShaSigma3                0      0.00%     63.49% # attempts to use FU when none available
system.cpu.iq.fu_full::SimdPredAlu                  0      0.00%     63.49% # attempts to use FU when none available
system.cpu.iq.fu_full::MemRead                     23     18.25%     81.75% # attempts to use FU when none available
system.cpu.iq.fu_full::MemWrite                    13     10.32%     92.06% # attempts to use FU when none available
system.cpu.iq.fu_full::FloatMemRead                 5      3.97%     96.03% # attempts to use FU when none available
system.cpu.iq.fu_full::FloatMemWrite                5      3.97%    100.00% # attempts to use FU when none available
system.cpu.iq.fu_full::IprAccess                    0      0.00%    100.00% # attempts to use FU when none available
system.cpu.iq.fu_full::InstPrefetch                 0      0.00%    100.00% # attempts to use FU when none available
system.cpu.iq.int_alu_accesses                  96750                       # Number of integer alu accesses
system.cpu.iq.int_inst_queue_reads             610441                       # Number of integer instruction queue reads
system.cpu.iq.int_inst_queue_wakeup_accesses        95188                       # Number of integer instruction queue wakeup accesses
system.cpu.iq.int_inst_queue_writes            108537                       # Number of integer instruction queue writes
system.cpu.iq.iqInstsAdded                     100120                       # Number of instructions added to the IQ (excludes non-spec)
system.cpu.iq.iqInstsIssued                     98667                       # Number of instructions issued
system.cpu.iq.iqNonSpecInstsAdded                   2                       # Number of non-speculative instructions added to the IQ
system.cpu.iq.iqSquashedInstsExamined            9865                       # Number of squashed instructions iterated over during squash; mainly for profiling
system.cpu.iq.iqSquashedInstsIssued                53                       # Number of squashed instructions issued
system.cpu.iq.iqSquashedNonSpecRemoved              2                       # Number of squashed non-spec instructions that were removed
system.cpu.iq.iqSquashedOperandsExamined        13326                       # Number of squashed operands that are examined and possibly removed from graph
system.cpu.iq.issued_per_cycle::samples        415709                       # Number of insts issued each cycle
system.cpu.iq.issued_per_cycle::mean         0.237346                       # Number of insts issued each cycle
system.cpu.iq.issued_per_cycle::stdev        0.748313                       # Number of insts issued each cycle
system.cpu.iq.issued_per_cycle::underflows            0      0.00%      0.00% # Number of insts issued each cycle
system.cpu.iq.issued_per_cycle::0              365605     87.95%     87.95% # Number of insts issued each cycle
system.cpu.iq.issued_per_cycle::1               19712      4.74%     92.69% # Number of insts issued each cycle
system.cpu.iq.issued_per_cycle::2               18402      4.43%     97.12% # Number of insts issued each cycle
system.cpu.iq.issued_per_cycle::3                9223      2.22%     99.33% # Number of insts issued each cycle
system.cpu.iq.issued_per_cycle::4                1007      0.24%     99.58% # Number of insts issued each cycle
system.cpu.iq.issued_per_cycle::5                 746      0.18%     99.76% # Number of insts issued each cycle
system.cpu.iq.issued_per_cycle::6                 519      0.12%     99.88% # Number of insts issued each cycle
system.cpu.iq.issued_per_cycle::7                 350      0.08%     99.97% # Number of insts issued each cycle
system.cpu.iq.issued_per_cycle::8                 145      0.03%    100.00% # Number of insts issued each cycle
system.cpu.iq.issued_per_cycle::overflows            0      0.00%    100.00% # Number of insts issued each cycle
system.cpu.iq.issued_per_cycle::min_value            0                       # Number of insts issued each cycle
system.cpu.iq.issued_per_cycle::max_value            8                       # Number of insts issued each cycle
system.cpu.iq.issued_per_cycle::total          415709                       # Number of insts issued each cycle
system.cpu.iq.rate                           0.103818                       # Inst issue rate
system.cpu.iq.vec_alu_accesses                      0                       # Number of vector alu accesses
system.cpu.iq.vec_inst_queue_reads                  0                       # Number of vector instruction queue reads
system.cpu.iq.vec_inst_queue_wakeup_accesses            0                       # Number of vector instruction queue wakeup accesses
system.cpu.iq.vec_inst_queue_writes                 0                       # Number of vector instruction queue writes
system.cpu.memDep0.conflictingLoads                 8                       # Number of conflicting loads.
system.cpu.memDep0.conflictingStores                0                       # Number of conflicting stores.
system.cpu.memDep0.insertedLoads                 2784                       # Number of loads inserted to the mem dependence unit.
system.cpu.memDep0.insertedStores                2399                       # Number of stores inserted to the mem dependence unit.
system.cpu.misc_regfile_reads                   27689                       # number of misc regfile reads
system.cpu.numCycles                           950387                       # number of cpu cycles simulated
system.cpu.numWorkItemsCompleted                    0                       # number of work items this cpu completed
system.cpu.numWorkItemsStarted                      0                       # number of work items this cpu started
system.cpu.timesIdled                           17946                       # Number of times that the entire CPU went into an idle state and unscheduled itself
system.cpu.workload.numSyscalls                    10                       # Number of system calls
system.membus.snoop_filter.hit_multi_requests            0                       # Number of requests hitting in the snoop filter with multiple (>1) holders of the requested data.
system.membus.snoop_filter.hit_multi_snoops            0                       # Number of snoops hitting in the snoop filter with multiple (>1) holders of the requested data.
system.membus.snoop_filter.hit_single_requests            0                       # Number of requests hitting in the snoop filter with a single holder of the requested data.
system.membus.snoop_filter.hit_single_snoops            0                       # Number of snoops hitting in the snoop filter with a single holder of the requested data.
system.membus.snoop_filter.tot_requests             0                       # Total number of requests made to the snoop filter.
system.membus.snoop_filter.tot_snoops               0                       # Total number of snoops made to the snoop filter.
system.clk_domain.clock                          1000                       # Clock period in ticks
system.clk_domain.voltage_domain.voltage            1                       # Voltage in Volts
system.cpu.branchPred.lookups                   11535                       # Number of BP lookups
system.cpu.branchPred.condPredicted             10587                       # Number of conditional branches predicted
system.cpu.branchPred.condIncorrect               718                       # Number of conditional branches incorrect
system.cpu.branchPred.BTBLookups                 9736                       # Number of BTB lookups
system.cpu.branchPred.BTBHits                    9119                       # Number of BTB hits
system.cpu.branchPred.BTBHitPct             93.662695                       # BTB Hit Percentage
system.cpu.branchPred.RASUsed                     220                       # Number of times the RAS was used to get a target.
system.cpu.branchPred.RASIncorrect                  0                       # Number of incorrect RAS predictions.
system.cpu.branchPred.indirectLookups             286                       # Number of indirect predictor lookups.
system.cpu.branchPred.indirectHits                 12                       # Number of indirect target hits.
system.cpu.branchPred.indirectMisses              274                       # Number of indirect misses.
system.cpu.branchPred.indirectMispredicted           96                       # Number of mispredicted indirect branches.
system.cpu.commit.commitSquashedInsts            9860                       # The number of squashed insts skipped by commit
system.cpu.commit.branchMispredicts               568                       # The number of times a branch was mispredicted
system.cpu.commit.numCommittedDist::samples       414068                       # Number of insts commited each cycle
system.cpu.commit.numCommittedDist::mean     0.217962                       # Number of insts commited each cycle
system.cpu.commit.numCommittedDist::stdev     0.707268                       # Number of insts commited each cycle
system.cpu.commit.numCommittedDist::underflows            0      0.00%      0.00% # Number of insts commited each cycle
system.cpu.commit.numCommittedDist::0          367135     88.67%     88.67% # Number of insts commited each cycle
system.cpu.commit.numCommittedDist::1           18656      4.51%     93.17% # Number of insts commited each cycle
system.cpu.commit.numCommittedDist::2           17546      4.24%     97.41% # Number of insts commited each cycle
system.cpu.commit.numCommittedDist::3            9089      2.20%     99.60% # Number of insts commited each cycle
system.cpu.commit.numCommittedDist::4             606      0.15%     99.75% # Number of insts commited each cycle
system.cpu.commit.numCommittedDist::5             336      0.08%     99.83% # Number of insts commited each cycle
system.cpu.commit.numCommittedDist::6             141      0.03%     99.86% # Number of insts commited each cycle
system.cpu.commit.numCommittedDist::7             186      0.04%     99.91% # Number of insts commited each cycle
system.cpu.commit.numCommittedDist::8             373      0.09%    100.00% # Number of insts commited each cycle
system.cpu.commit.numCommittedDist::overflows            0      0.00%    100.00% # Number of insts commited each cycle
system.cpu.commit.numCommittedDist::min_value            0                       # Number of insts commited each cycle
system.cpu.commit.numCommittedDist::max_value            8                       # Number of insts commited each cycle
system.cpu.commit.numCommittedDist::total       414068                       # Number of insts commited each cycle
system.cpu.commit.instsCommitted                49462                       # Number of instructions committed
system.cpu.commit.opsCommitted                  90251                       # Number of ops (including micro ops) committed
system.cpu.commit.memRefs                        3162                       # Number of memory references committed
system.cpu.commit.loads                          1536                       # Number of loads committed
system.cpu.commit.amos                              0                       # Number of atomic instructions committed
system.cpu.commit.membars                           0                       # Number of memory barriers committed
system.cpu.commit.branches                       9985                       # Number of branches committed
system.cpu.commit.vector                            0                       # Number of committed Vector instructions.
system.cpu.commit.floating                       1149                       # Number of committed floating point instructions.
system.cpu.commit.integer                       89472                       # Number of committed integer instructions.
system.cpu.commit.functionCalls                   147                       # Number of function calls committed.
system.cpu.commit.committedInstType_0::No_OpClass          317      0.35%      0.35% # Class of committed instruction
system.cpu.commit.committedInstType_0::IntAlu        86256     95.57%     95.92% # Class of committed instruction
system.cpu.commit.committedInstType_0::IntMult            5      0.01%     95.93% # Class of committed instruction
system.cpu.commit.committedInstType_0::IntDiv           21      0.02%     95.95% # Class of committed instruction
system.cpu.commit.committedInstType_0::FloatAdd          135      0.15%     96.10% # Class of committed instruction
system.cpu.commit.committedInstType_0::FloatCmp            0      0.00%     96.10% # Class of committed instruction
system.cpu.commit.committedInstType_0::FloatCvt            0      0.00%     96.10% # Class of committed instruction
system.cpu.commit.committedInstType_0::FloatMult            0      0.00%     96.10% # Class of committed instruction
system.cpu.commit.committedInstType_0::FloatMultAcc            0      0.00%     96.10% # Class of committed instruction
system.cpu.commit.committedInstType_0::FloatDiv            0      0.00%     96.10% # Class of committed instruction
system.cpu.commit.committedInstType_0::FloatMisc            0      0.00%     96.10% # Class of committed instruction
system.cpu.commit.committedInstType_0::FloatSqrt            0      0.00%     96.10% # Class of committed instruction
system.cpu.commit.committedInstType_0::SimdAdd            0      0.00%     96.10% # Class of committed instruction
system.cpu.commit.committedInstType_0::SimdAddAcc            0      0.00%     96.10% # Class of committed instruction
system.cpu.commit.committedInstType_0::SimdAlu           94      0.10%     96.21% # Class of committed instruction
system.cpu.commit.committedInstType_0::SimdCmp            0      0.00%     96.21% # Class of committed instruction
system.cpu.commit.committedInstType_0::SimdCvt           46      0.05%     96.26% # Class of committed instruction
system.cpu.commit.committedInstType_0::SimdMisc          215      0.24%     96.50% # Class of committed instruction
system.cpu.commit.committedInstType_0::SimdMult            0      0.00%     96.50% # Class of committed instruction
system.cpu.commit.committedInstType_0::SimdMultAcc            0      0.00%     96.50% # Class of committed instruction
system.cpu.commit.committedInstType_0::SimdShift            0      0.00%     96.50% # Class of committed instruction
system.cpu.commit.committedInstType_0::SimdShiftAcc            0      0.00%     96.50% # Class of committed instruction
system.cpu.commit.committedInstType_0::SimdDiv            0      0.00%     96.50% # Class of committed instruction
system.cpu.commit.committedInstType_0::SimdSqrt            0      0.00%     96.50% # Class of committed instruction
system.cpu.commit.committedInstType_0::SimdFloatAdd            0      0.00%     96.50% # Class of committed instruction
system.cpu.commit.committedInstType_0::SimdFloatAlu            0      0.00%     96.50% # Class of committed instruction
system.cpu.commit.committedInstType_0::SimdFloatCmp            0      0.00%     96.50% # Class of committed instruction
system.cpu.commit.committedInstType_0::SimdFloatCvt            0      0.00%     96.50% # Class of committed instruction
system.cpu.commit.committedInstType_0::SimdFloatDiv            0      0.00%     96.50% # Class of committed instruction
system.cpu.commit.committedInstType_0::SimdFloatMisc            0      0.00%     96.50% # Class of committed instruction
system.cpu.commit.committedInstType_0::SimdFloatMult            0      0.00%     96.50% # Class of committed instruction
system.cpu.commit.committedInstType_0::SimdFloatMultAcc            0      0.00%     96.50% # Class of committed instruction
system.cpu.commit.committedInstType_0::SimdFloatSqrt            0      0.00%     96.50% # Class of committed instruction
system.cpu.commit.committedInstType_0::SimdReduceAdd            0      0.00%     96.50% # Class of committed instruction
system.cpu.commit.committedInstType_0::SimdReduceAlu            0      0.00%     96.50% # Class of committed instruction
system.cpu.commit.committedInstType_0::SimdReduceCmp            0      0.00%     96.50% # Class of committed instruction
system.cpu.commit.committedInstType_0::SimdFloatReduceAdd            0      0.00%     96.50% # Class of committed instruction
system.cpu.commit.committedInstType_0::SimdFloatReduceCmp            0      0.00%     96.50% # Class of committed instruction
system.cpu.commit.committedInstType_0::SimdAes            0      0.00%     96.50% # Class of committed instruction
system.cpu.commit.committedInstType_0::SimdAesMix            0      0.00%     96.50% # Class of committed instruction
system.cpu.commit.committedInstType_0::SimdSha1Hash            0      0.00%     96.50% # Class of committed instruction
system.cpu.commit.committedInstType_0::SimdSha1Hash2            0      0.00%     96.50% # Class of committed instruction
system.cpu.commit.committedInstType_0::SimdSha256Hash            0      0.00%     96.50% # Class of committed instruction
system.cpu.commit.committedInstType_0::SimdSha256Hash2            0      0.00%     96.50% # Class of committed instruction
system.cpu.commit.committedInstType_0::SimdShaSigma2            0      0.00%     96.50% # Class of committed instruction
system.cpu.commit.committedInstType_0::SimdShaSigma3            0      0.00%     96.50% # Class of committed instruction
system.cpu.commit.committedInstType_0::SimdPredAlu            0      0.00%     96.50% # Class of committed instruction
system.cpu.commit.committedInstType_0::MemRead         1482      1.64%     98.14% # Class of committed instruction
system.cpu.commit.committedInstType_0::MemWrite         1160      1.29%     99.42% # Class of committed instruction
system.cpu.commit.committedInstType_0::FloatMemRead           54      0.06%     99.48% # Class of committed instruction
system.cpu.commit.committedInstType_0::FloatMemWrite          466      0.52%    100.00% # Class of committed instruction
system.cpu.commit.committedInstType_0::IprAccess            0      0.00%    100.00% # Class of committed instruction
system.cpu.commit.committedInstType_0::InstPrefetch            0      0.00%    100.00% # Class of committed instruction
system.cpu.commit.committedInstType_0::total        90251                       # Class of committed instruction
system.cpu.commit.commitEligibleSamples           373                       # number cycles where commit BW limit reached
system.cpu.decode.idleCycles                   385023                       # Number of cycles decode is idle
system.cpu.decode.blockedCycles                  9370                       # Number of cycles decode is blocked
system.cpu.decode.runCycles                     20407                       # Number of cycles decode is running
system.cpu.decode.unblockCycles                   315                       # Number of cycles decode is unblocking
system.cpu.decode.squashCycles                    594                       # Number of cycles decode is squashing
system.cpu.decode.branchResolved                 9276                       # Number of times decode resolved a  branch
system.cpu.decode.branchMispred                   215                       # Number of times decode detected a branch misprediction
system.cpu.decode.decodedInsts                 100601                       # Number of instructions handled by decode
system.cpu.decode.squashedInsts                  1084                       # Number of squashed instructions handled by decode
system.cpu.dtb.rdAccesses                        2631                       # TLB accesses on read requests
system.cpu.dtb.wrAccesses                        2139                       # TLB accesses on write requests
system.cpu.dtb.rdMisses                            71                       # TLB misses on read requests
system.cpu.dtb.wrMisses                            16                       # TLB misses on write requests
system.cpu.dtb.walker.power_state.pwrStateResidencyTicks::UNDEFINED    950386000                       # Cumulative time (in ticks) in various power states
system.cpu.fetch.icacheStallCycles             387022                       # Number of cycles fetch is stalled on an Icache miss
system.cpu.fetch.insts                          56041                       # Number of instructions fetch has processed
system.cpu.fetch.branches                       11535                       # Number of branches that fetch encountered
system.cpu.fetch.predictedBranches               9351                       # Number of branches that fetch has predicted taken
system.cpu.fetch.cycles                         27334                       # Number of cycles fetch has run and was not squashing or blocked
system.cpu.fetch.squashCycles                    1618                       # Number of cycles fetch has spent squashing
system.cpu.fetch.miscStallCycles                   92                       # Number of cycles fetch has spent waiting on interrupts,or bad addresses, or out of MSHRs
system.cpu.fetch.pendingTrapStallCycles           451                       # Number of stall cycles due to pending traps
system.cpu.fetch.pendingQuiesceStallCycles            1                       # Number of stall cycles due to pending quiesce instructions
system.cpu.fetch.cacheLines                     18415                       # Number of cache lines fetched
system.cpu.fetch.icacheSquashes                   583                       # Number of outstanding Icache misses that were squashed
system.cpu.fetch.nisnDist::samples             415709                       # Number of instructions fetched each cycle (Total)
system.cpu.fetch.nisnDist::mean              0.247488                       # Number of instructions fetched each cycle (Total)
system.cpu.fetch.nisnDist::stdev             1.154350                       # Number of instructions fetched each cycle (Total)
system.cpu.fetch.nisnDist::underflows               0      0.00%      0.00% # Number of instructions fetched each cycle (Total)
system.cpu.fetch.nisnDist::0                   394812     94.97%     94.97% # Number of instructions fetched each cycle (Total)
system.cpu.fetch.nisnDist::1                      181      0.04%     95.02% # Number of instructions fetched each cycle (Total)
system.cpu.fetch.nisnDist::2                      215      0.05%     95.07% # Number of instructions fetched each cycle (Total)
system.cpu.fetch.nisnDist::3                     8440      2.03%     97.10% # Number of instructions fetched each cycle (Total)
system.cpu.fetch.nisnDist::4                      431      0.10%     97.20% # Number of instructions fetched each cycle (Total)
system.cpu.fetch.nisnDist::5                      266      0.06%     97.27% # Number of instructions fetched each cycle (Total)
system.cpu.fetch.nisnDist::6                     8385      2.02%     99.28% # Number of instructions fetched each cycle (Total)
system.cpu.fetch.nisnDist::7                      244      0.06%     99.34% # Number of instructions fetched each cycle (Total)
system.cpu.fetch.nisnDist::8                     2735      0.66%    100.00% # Number of instructions fetched each cycle (Total)
system.cpu.fetch.nisnDist::overflows                0      0.00%    100.00% # Number of instructions fetched each cycle (Total)
system.cpu.fetch.nisnDist::min_value                0                       # Number of instructions fetched each cycle (Total)
system.cpu.fetch.nisnDist::max_value                8                       # Number of instructions fetched each cycle (Total)
system.cpu.fetch.nisnDist::total               415709                       # Number of instructions fetched each cycle (Total)
system.cpu.fetch.branchRate                  0.012137                       # Number of branch fetches per cycle
system.cpu.fetch.rate                        0.058967                       # Number of inst fetches per cycle
system.cpu.interrupts.clk_domain.clock          16000                       # Clock period in ticks
system.cpu.itb.rdAccesses                           0                       # TLB accesses on read requests
system.cpu.itb.wrAccesses                       18500                       # TLB accesses on write requests
system.cpu.itb.rdMisses                             0                       # TLB misses on read requests
system.cpu.itb.wrMisses                           127                       # TLB misses on write requests
system.cpu.itb.walker.power_state.pwrStateResidencyTicks::UNDEFINED    950386000                       # Cumulative time (in ticks) in various power states
system.cpu.lsq0.forwLoads                          73                       # Number of loads that had data forwarded from stores
system.cpu.lsq0.squashedLoads                    1248                       # Number of loads squashed
system.cpu.lsq0.ignoredResponses                    0                       # Number of memory responses ignored because the instruction is squashed
system.cpu.lsq0.memOrderViolation                  14                       # Number of memory ordering violations
system.cpu.lsq0.squashedStores                    773                       # Number of stores squashed
system.cpu.lsq0.rescheduledLoads                    0                       # Number of loads that were rescheduled
system.cpu.lsq0.blockedByCache                    781                       # Number of times an access to memory failed due to the cache being blocked
system.cpu.power_state.pwrStateResidencyTicks::ON    950386000                       # Cumulative time (in ticks) in various power states
system.cpu.rename.squashCycles                    594                       # Number of cycles rename is squashing
system.cpu.rename.idleCycles                   385313                       # Number of cycles rename is idle
system.cpu.rename.blockCycles                    4332                       # Number of cycles rename is blocking
system.cpu.rename.serializeStallCycles            142                       # count of cycles rename stalledfor serializing inst
system.cpu.rename.runCycles                     20373                       # Number of cycles rename is running
system.cpu.rename.unblockCycles                  4955                       # Number of cycles rename is unblocking
system.cpu.rename.renamedInsts                 100406                       # Number of instructions processed by rename
system.cpu.rename.IQFullEvents                    285                       # Number of times rename has blocked due to IQ full
system.cpu.rename.SQFullEvents                   4552                       # Number of times rename has blocked due to SQ full
system.cpu.rename.renamedOperands              127575                       # Number of destination operands rename has renamed
system.cpu.rename.lookups                      220302                       # Number of register rename lookups that rename has made
system.cpu.rename.intLookups                   135336                       # Number of integer rename lookups
system.cpu.rename.fpLookups                      1512                       # Number of floating rename lookups
system.cpu.rename.committedMaps                116634                       # Number of HB maps that are committed
system.cpu.rename.undoneMaps                    10935                       # Number of HB maps that are undone due to squashing
system.cpu.rename.serializing                       5                       # count of serializing insts renamed
system.cpu.rename.tempSerializing                   5                       # count of temporary serializing insts renamed
system.cpu.rename.skidInsts                      2007                       # count of insts added to the skid buffer
system.cpu.rob.reads                           513650                       # The number of ROB reads
system.cpu.rob.writes                          201882                       # The number of ROB writes
system.cpu.thread_0.numInsts                    49462                       # Number of Instructions committed
system.cpu.thread_0.numOps                      90251                       # Number of Ops committed
system.cpu.thread_0.numMemRefs                      0                       # Number of Memory References
system.mem_ctrl.avgPriority_.cpu.inst::samples     18415.00                       # Average QoS priority value for accepted requests
system.mem_ctrl.avgPriority_.cpu.data::samples      2319.00                       # Average QoS priority value for accepted requests
system.mem_ctrl.priorityMinLatency       0.000000018750                       # per QoS priority minimum request to response latency (s)
system.mem_ctrl.priorityMaxLatency       0.000076801250                       # per QoS priority maximum request to response latency (s)
system.mem_ctrl.numReadWriteTurnArounds            10                       # Number of turnarounds from READ to WRITE
system.mem_ctrl.numWriteReadTurnArounds            10                       # Number of turnarounds from WRITE to READ
system.mem_ctrl.numStayReadState                42128                       # Number of times bus staying in READ state
system.mem_ctrl.numStayWriteState                 152                       # Number of times bus staying in WRITE state
system.mem_ctrl.readReqs                        20825                       # Number of read requests accepted
system.mem_ctrl.writeReqs                        1627                       # Number of write requests accepted
system.mem_ctrl.readBursts                      20825                       # Number of controller read bursts, including those serviced by the write queue
system.mem_ctrl.writeBursts                      1627                       # Number of controller write bursts, including those merged in the write queue
system.mem_ctrl.servicedByWrQ                     280                       # Number of controller read bursts serviced by the write queue
system.mem_ctrl.mergedWrBursts                   1438                       # Number of controller write bursts merged with an existing one
system.mem_ctrl.neitherReadNorWriteReqs             0                       # Number of requests that are neither read nor write
system.mem_ctrl.avgRdQLen                        1.22                       # Average read queue length when enqueuing
system.mem_ctrl.avgWrQLen                       18.63                       # Average write queue length when enqueuing
system.mem_ctrl.numRdRetry                          0                       # Number of times read queue was full causing retry
system.mem_ctrl.numWrRetry                          0                       # Number of times write queue was full causing retry
system.mem_ctrl.readPktSize::0                    287                       # Read request sizes (log2)
system.mem_ctrl.readPktSize::1                     28                       # Read request sizes (log2)
system.mem_ctrl.readPktSize::2                    405                       # Read request sizes (log2)
system.mem_ctrl.readPktSize::3                   1690                       # Read request sizes (log2)
system.mem_ctrl.readPktSize::4                      0                       # Read request sizes (log2)
system.mem_ctrl.readPktSize::5                      0                       # Read request sizes (log2)
system.mem_ctrl.readPktSize::6                  18415                       # Read request sizes (log2)
system.mem_ctrl.writePktSize::0                    28                       # Write request sizes (log2)
system.mem_ctrl.writePktSize::1                     8                       # Write request sizes (log2)
system.mem_ctrl.writePktSize::2                   128                       # Write request sizes (log2)
system.mem_ctrl.writePktSize::3                  1463                       # Write request sizes (log2)
system.mem_ctrl.writePktSize::4                     0                       # Write request sizes (log2)
system.mem_ctrl.writePktSize::5                     0                       # Write request sizes (log2)
system.mem_ctrl.writePktSize::6                     0                       # Write request sizes (log2)
system.mem_ctrl.rdQLenPdf::0                    17729                       # What read queue length does an incoming req see
system.mem_ctrl.rdQLenPdf::1                     1189                       # What read queue length does an incoming req see
system.mem_ctrl.rdQLenPdf::2                      672                       # What read queue length does an incoming req see
system.mem_ctrl.rdQLenPdf::3                      344                       # What read queue length does an incoming req see
system.mem_ctrl.rdQLenPdf::4                      183                       # What read queue length does an incoming req see
system.mem_ctrl.rdQLenPdf::5                      111                       # What read queue length does an incoming req see
system.mem_ctrl.rdQLenPdf::6                       82                       # What read queue length does an incoming req see
system.mem_ctrl.rdQLenPdf::7                       48                       # What read queue length does an incoming req see
system.mem_ctrl.rdQLenPdf::8                       30                       # What read queue length does an incoming req see
system.mem_ctrl.rdQLenPdf::9                       21                       # What read queue length does an incoming req see
system.mem_ctrl.rdQLenPdf::10                      18                       # What read queue length does an incoming req see
system.mem_ctrl.rdQLenPdf::11                      14                       # What read queue length does an incoming req see
system.mem_ctrl.rdQLenPdf::12                      12                       # What read queue length does an incoming req see
system.mem_ctrl.rdQLenPdf::13                      10                       # What read queue length does an incoming req see
system.mem_ctrl.rdQLenPdf::14                      11                       # What read queue length does an incoming req see
system.mem_ctrl.rdQLenPdf::15                       9                       # What read queue length does an incoming req see
system.mem_ctrl.rdQLenPdf::16                       8                       # What read queue length does an incoming req see
system.mem_ctrl.rdQLenPdf::17                       8                       # What read queue length does an incoming req see
system.mem_ctrl.rdQLenPdf::18                       5                       # What read queue length does an incoming req see
system.mem_ctrl.rdQLenPdf::19                       5                       # What read queue length does an incoming req see
system.mem_ctrl.rdQLenPdf::20                       8                       # What read queue length does an incoming req see
system.mem_ctrl.rdQLenPdf::21                      11                       # What read queue length does an incoming req see
system.mem_ctrl.rdQLenPdf::22                       5                       # What read queue length does an incoming req see
system.mem_ctrl.rdQLenPdf::23                       6                       # What read queue length does an incoming req see
system.mem_ctrl.rdQLenPdf::24                       2                       # What read queue length does an incoming req see
system.mem_ctrl.rdQLenPdf::25                       2                       # What read queue length does an incoming req see
system.mem_ctrl.rdQLenPdf::26                       2                       # What read queue length does an incoming req see
system.mem_ctrl.rdQLenPdf::27                       0                       # What read queue length does an incoming req see
system.mem_ctrl.rdQLenPdf::28                       0                       # What read queue length does an incoming req see
system.mem_ctrl.rdQLenPdf::29                       0                       # What read queue length does an incoming req see
system.mem_ctrl.rdQLenPdf::30                       0                       # What read queue length does an incoming req see
system.mem_ctrl.rdQLenPdf::31                       0                       # What read queue length does an incoming req see
system.mem_ctrl.wrQLenPdf::0                        1                       # What write queue length does an incoming req see
system.mem_ctrl.wrQLenPdf::1                        1                       # What write queue length does an incoming req see
system.mem_ctrl.wrQLenPdf::2                        1                       # What write queue length does an incoming req see
system.mem_ctrl.wrQLenPdf::3                        1                       # What write queue length does an incoming req see
system.mem_ctrl.wrQLenPdf::4                        1                       # What write queue length does an incoming req see
system.mem_ctrl.wrQLenPdf::5                        1                       # What write queue length does an incoming req see
system.mem_ctrl.wrQLenPdf::6                        1                       # What write queue length does an incoming req see
system.mem_ctrl.wrQLenPdf::7                        1                       # What write queue length does an incoming req see
system.mem_ctrl.wrQLenPdf::8                        1                       # What write queue length does an incoming req see
system.mem_ctrl.wrQLenPdf::9                        1                       # What write queue length does an incoming req see
system.mem_ctrl.wrQLenPdf::10                       1                       # What write queue length does an incoming req see
system.mem_ctrl.wrQLenPdf::11                       1                       # What write queue length does an incoming req see
system.mem_ctrl.wrQLenPdf::12                       1                       # What write queue length does an incoming req see
system.mem_ctrl.wrQLenPdf::13                       1                       # What write queue length does an incoming req see
system.mem_ctrl.wrQLenPdf::14                       1                       # What write queue length does an incoming req see
system.mem_ctrl.wrQLenPdf::15                       2                       # What write queue length does an incoming req see
system.mem_ctrl.wrQLenPdf::16                       2                       # What write queue length does an incoming req see
system.mem_ctrl.wrQLenPdf::17                       9                       # What write queue length does an incoming req see
system.mem_ctrl.wrQLenPdf::18                      11                       # What write queue length does an incoming req see
system.mem_ctrl.wrQLenPdf::19                      11                       # What write queue length does an incoming req see
system.mem_ctrl.wrQLenPdf::20                      12                       # What write queue length does an incoming req see
system.mem_ctrl.wrQLenPdf::21                      12                       # What write queue length does an incoming req see
system.mem_ctrl.wrQLenPdf::22                      11                       # What write queue length does an incoming req see
system.mem_ctrl.wrQLenPdf::23                      11                       # What write queue length does an incoming req see
system.mem_ctrl.wrQLenPdf::24                      11                       # What write queue length does an incoming req see
system.mem_ctrl.wrQLenPdf::25                      11                       # What write queue length does an incoming req see
system.mem_ctrl.wrQLenPdf::26                      11                       # What write queue length does an incoming req see
system.mem_ctrl.wrQLenPdf::27                      10                       # What write queue length does an incoming req see
system.mem_ctrl.wrQLenPdf::28                      10                       # What write queue length does an incoming req see
system.mem_ctrl.wrQLenPdf::29                      10                       # What write queue length does an incoming req see
system.mem_ctrl.wrQLenPdf::30                      10                       # What write queue length does an incoming req see
system.mem_ctrl.wrQLenPdf::31                      10                       # What write queue length does an incoming req see
system.mem_ctrl.wrQLenPdf::32                      10                       # What write queue length does an incoming req see
system.mem_ctrl.wrQLenPdf::33                       0                       # What write queue length does an incoming req see
system.mem_ctrl.wrQLenPdf::34                       0                       # What write queue length does an incoming req see
system.mem_ctrl.wrQLenPdf::35                       0                       # What write queue length does an incoming req see
system.mem_ctrl.wrQLenPdf::36                       0                       # What write queue length does an incoming req see
system.mem_ctrl.wrQLenPdf::37                       0                       # What write queue length does an incoming req see
system.mem_ctrl.wrQLenPdf::38                       0                       # What write queue length does an incoming req see
system.mem_ctrl.wrQLenPdf::39                       0                       # What write queue length does an incoming req see
system.mem_ctrl.wrQLenPdf::40                       0                       # What write queue length does an incoming req see
system.mem_ctrl.wrQLenPdf::41                       0                       # What write queue length does an incoming req see
system.mem_ctrl.wrQLenPdf::42                       0                       # What write queue length does an incoming req see
system.mem_ctrl.wrQLenPdf::43                       0                       # What write queue length does an incoming req see
system.mem_ctrl.wrQLenPdf::44                       0                       # What write queue length does an incoming req see
system.mem_ctrl.wrQLenPdf::45                       0                       # What write queue length does an incoming req see
system.mem_ctrl.wrQLenPdf::46                       0                       # What write queue length does an incoming req see
system.mem_ctrl.wrQLenPdf::47                       0                       # What write queue length does an incoming req see
system.mem_ctrl.wrQLenPdf::48                       0                       # What write queue length does an incoming req see
system.mem_ctrl.wrQLenPdf::49                       0                       # What write queue length does an incoming req see
system.mem_ctrl.wrQLenPdf::50                       0                       # What write queue length does an incoming req see
system.mem_ctrl.wrQLenPdf::51                       0                       # What write queue length does an incoming req see
system.mem_ctrl.wrQLenPdf::52                       0                       # What write queue length does an incoming req see
system.mem_ctrl.wrQLenPdf::53                       0                       # What write queue length does an incoming req see
system.mem_ctrl.wrQLenPdf::54                       0                       # What write queue length does an incoming req see
system.mem_ctrl.wrQLenPdf::55                       0                       # What write queue length does an incoming req see
system.mem_ctrl.wrQLenPdf::56                       0                       # What write queue length does an incoming req see
system.mem_ctrl.wrQLenPdf::57                       0                       # What write queue length does an incoming req see
system.mem_ctrl.wrQLenPdf::58                       0                       # What write queue length does an incoming req see
system.mem_ctrl.wrQLenPdf::59                       0                       # What write queue length does an incoming req see
system.mem_ctrl.wrQLenPdf::60                       0                       # What write queue length does an incoming req see
system.mem_ctrl.wrQLenPdf::61                       0                       # What write queue length does an incoming req see
system.mem_ctrl.wrQLenPdf::62                       0                       # What write queue length does an incoming req see
system.mem_ctrl.wrQLenPdf::63                       0                       # What write queue length does an incoming req see
system.mem_ctrl.rdPerTurnAround::samples           10                       # Reads before turning the bus around for writes
system.mem_ctrl.rdPerTurnAround::mean      379.400000                       # Reads before turning the bus around for writes
system.mem_ctrl.rdPerTurnAround::gmean     171.341638                       # Reads before turning the bus around for writes
system.mem_ctrl.rdPerTurnAround::stdev     364.382034                       # Reads before turning the bus around for writes
system.mem_ctrl.rdPerTurnAround::0-63               2     20.00%     20.00% # Reads before turning the bus around for writes
system.mem_ctrl.rdPerTurnAround::128-191            1     10.00%     30.00% # Reads before turning the bus around for writes
system.mem_ctrl.rdPerTurnAround::192-255            2     20.00%     50.00% # Reads before turning the bus around for writes
system.mem_ctrl.rdPerTurnAround::256-319            2     20.00%     70.00% # Reads before turning the bus around for writes
system.mem_ctrl.rdPerTurnAround::640-703            1     10.00%     80.00% # Reads before turning the bus around for writes
system.mem_ctrl.rdPerTurnAround::704-767            1     10.00%     90.00% # Reads before turning the bus around for writes
system.mem_ctrl.rdPerTurnAround::1152-1215            1     10.00%    100.00% # Reads before turning the bus around for writes
system.mem_ctrl.rdPerTurnAround::total             10                       # Reads before turning the bus around for writes
system.mem_ctrl.wrPerTurnAround::samples           10                       # Writes before turning the bus around for reads
system.mem_ctrl.wrPerTurnAround::mean       16.200000                       # Writes before turning the bus around for reads
system.mem_ctrl.wrPerTurnAround::gmean      16.189567                       # Writes before turning the bus around for reads
system.mem_ctrl.wrPerTurnAround::stdev       0.632456                       # Writes before turning the bus around for reads
system.mem_ctrl.wrPerTurnAround::16                 9     90.00%     90.00% # Writes before turning the bus around for reads
system.mem_ctrl.wrPerTurnAround::18                 1     10.00%    100.00% # Writes before turning the bus around for reads
system.mem_ctrl.wrPerTurnAround::total             10                       # Writes before turning the bus around for reads
system.mem_ctrl.bytesReadWrQ                    17920                       # Total number of bytes read from write queue
system.mem_ctrl.bytesReadSys                  1194039                       # Total read bytes from the system interface side
system.mem_ctrl.bytesWrittenSys                 12258                       # Total written bytes from the system interface side
system.mem_ctrl.avgRdBWSys                    1256.37                       # Average system read bandwidth in MiByte/s
system.mem_ctrl.avgWrBWSys                      12.90                       # Average system write bandwidth in MiByte/s
system.mem_ctrl.totGap                      950379000                       # Total gap between requests
system.mem_ctrl.avgGap                       42329.37                       # Average gap between requests
system.mem_ctrl.requestorReadBytes::.cpu.inst      1178560                       # Per-requestor bytes read from memory
system.mem_ctrl.requestorReadBytes::.cpu.data        13359                       # Per-requestor bytes read from memory
system.mem_ctrl.requestorWriteBytes::.cpu.data         1225                       # Per-requestor bytes write to memory
system.mem_ctrl.requestorReadRate::.cpu.inst 1240085607.321656703949                       # Per-requestor bytes read from memory rate (Bytes/sec)
system.mem_ctrl.requestorReadRate::.cpu.data 14056393.928361739963                       # Per-requestor bytes read from memory rate (Bytes/sec)
system.mem_ctrl.requestorWriteRate::.cpu.data 1288949.963488519425                       # Per-requestor bytes write to memory rate (Bytes/sec)
system.mem_ctrl.requestorReadAccesses::.cpu.inst        18415                       # Per-requestor read serviced memory accesses
system.mem_ctrl.requestorReadAccesses::.cpu.data         2410                       # Per-requestor read serviced memory accesses
system.mem_ctrl.requestorWriteAccesses::.cpu.data         1627                       # Per-requestor write serviced memory accesses
system.mem_ctrl.requestorReadTotalLat::.cpu.inst    408942750                       # Per-requestor read total memory access latency
system.mem_ctrl.requestorReadTotalLat::.cpu.data     99131750                       # Per-requestor read total memory access latency
system.mem_ctrl.requestorWriteTotalLat::.cpu.data   2103518500                       # Per-requestor write total memory access latency
system.mem_ctrl.requestorReadAvgLat::.cpu.inst     22207.05                       # Per-requestor read average memory access latency
system.mem_ctrl.requestorReadAvgLat::.cpu.data     41133.51                       # Per-requestor read average memory access latency
system.mem_ctrl.requestorWriteAvgLat::.cpu.data   1292881.68                       # Per-requestor write average memory access latency
system.mem_ctrl.dram.bytes_read::.cpu.inst      1178432                       # Number of bytes read from this memory
system.mem_ctrl.dram.bytes_read::.cpu.data        15479                       # Number of bytes read from this memory
system.mem_ctrl.dram.bytes_read::total        1193911                       # Number of bytes read from this memory
system.mem_ctrl.dram.bytes_inst_read::.cpu.inst      1178432                       # Number of instructions bytes read from this memory
system.mem_ctrl.dram.bytes_inst_read::total      1178432                       # Number of instructions bytes read from this memory
system.mem_ctrl.dram.bytes_written::.cpu.data        12258                       # Number of bytes written to this memory
system.mem_ctrl.dram.bytes_written::total        12258                       # Number of bytes written to this memory
system.mem_ctrl.dram.num_reads::.cpu.inst        18413                       # Number of read requests responded to by this memory
system.mem_ctrl.dram.num_reads::.cpu.data         2410                       # Number of read requests responded to by this memory
system.mem_ctrl.dram.num_reads::total           20823                       # Number of read requests responded to by this memory
system.mem_ctrl.dram.num_writes::.cpu.data         1627                       # Number of write requests responded to by this memory
system.mem_ctrl.dram.num_writes::total           1627                       # Number of write requests responded to by this memory
system.mem_ctrl.dram.bw_read::.cpu.inst    1239950925                       # Total read bandwidth from this memory (bytes/s)
system.mem_ctrl.dram.bw_read::.cpu.data      16287067                       # Total read bandwidth from this memory (bytes/s)
system.mem_ctrl.dram.bw_read::total        1256237992                       # Total read bandwidth from this memory (bytes/s)
system.mem_ctrl.dram.bw_inst_read::.cpu.inst   1239950925                       # Instruction read bandwidth from this memory (bytes/s)
system.mem_ctrl.dram.bw_inst_read::total   1239950925                       # Instruction read bandwidth from this memory (bytes/s)
system.mem_ctrl.dram.bw_write::.cpu.data     12897917                       # Write bandwidth from this memory (bytes/s)
system.mem_ctrl.dram.bw_write::total         12897917                       # Write bandwidth from this memory (bytes/s)
system.mem_ctrl.dram.bw_total::.cpu.inst   1239950925                       # Total bandwidth to/from this memory (bytes/s)
system.mem_ctrl.dram.bw_total::.cpu.data     29184984                       # Total bandwidth to/from this memory (bytes/s)
system.mem_ctrl.dram.bw_total::total       1269135909                       # Total bandwidth to/from this memory (bytes/s)
system.mem_ctrl.dram.readBursts                 20545                       # Number of DRAM read bursts
system.mem_ctrl.dram.writeBursts                  162                       # Number of DRAM write bursts
system.mem_ctrl.dram.perBankRdBursts::0         17164                       # Per bank write bursts
system.mem_ctrl.dram.perBankRdBursts::1           998                       # Per bank write bursts
system.mem_ctrl.dram.perBankRdBursts::2           125                       # Per bank write bursts
system.mem_ctrl.dram.perBankRdBursts::3           266                       # Per bank write bursts
system.mem_ctrl.dram.perBankRdBursts::4            30                       # Per bank write bursts
system.mem_ctrl.dram.perBankRdBursts::5            30                       # Per bank write bursts
system.mem_ctrl.dram.perBankRdBursts::6           364                       # Per bank write bursts
system.mem_ctrl.dram.perBankRdBursts::7           137                       # Per bank write bursts
system.mem_ctrl.dram.perBankRdBursts::8            40                       # Per bank write bursts
system.mem_ctrl.dram.perBankRdBursts::9            48                       # Per bank write bursts
system.mem_ctrl.dram.perBankRdBursts::10           65                       # Per bank write bursts
system.mem_ctrl.dram.perBankRdBursts::11          185                       # Per bank write bursts
system.mem_ctrl.dram.perBankRdBursts::12          392                       # Per bank write bursts
system.mem_ctrl.dram.perBankRdBursts::13           41                       # Per bank write bursts
system.mem_ctrl.dram.perBankRdBursts::14          271                       # Per bank write bursts
system.mem_ctrl.dram.perBankRdBursts::15          389                       # Per bank write bursts
system.mem_ctrl.dram.perBankWrBursts::0            25                       # Per bank write bursts
system.mem_ctrl.dram.perBankWrBursts::1            36                       # Per bank write bursts
system.mem_ctrl.dram.perBankWrBursts::2             6                       # Per bank write bursts
system.mem_ctrl.dram.perBankWrBursts::3            50                       # Per bank write bursts
system.mem_ctrl.dram.perBankWrBursts::4             0                       # Per bank write bursts
system.mem_ctrl.dram.perBankWrBursts::5             0                       # Per bank write bursts
system.mem_ctrl.dram.perBankWrBursts::6             0                       # Per bank write bursts
system.mem_ctrl.dram.perBankWrBursts::7             0                       # Per bank write bursts
system.mem_ctrl.dram.perBankWrBursts::8             0                       # Per bank write bursts
system.mem_ctrl.dram.perBankWrBursts::9             0                       # Per bank write bursts
system.mem_ctrl.dram.perBankWrBursts::10            0                       # Per bank write bursts
system.mem_ctrl.dram.perBankWrBursts::11            0                       # Per bank write bursts
system.mem_ctrl.dram.perBankWrBursts::12            0                       # Per bank write bursts
system.mem_ctrl.dram.perBankWrBursts::13            0                       # Per bank write bursts
system.mem_ctrl.dram.perBankWrBursts::14            0                       # Per bank write bursts
system.mem_ctrl.dram.perBankWrBursts::15           45                       # Per bank write bursts
system.mem_ctrl.dram.totQLat                122855750                       # Total ticks spent queuing
system.mem_ctrl.dram.totBusLat              102725000                       # Total ticks spent in databus transfers
system.mem_ctrl.dram.totMemAccLat           508074500                       # Total ticks spent from burst creation until serviced by the DRAM
system.mem_ctrl.dram.avgQLat                  5979.84                       # Average queueing delay per DRAM burst
system.mem_ctrl.dram.avgBusLat                5000.00                       # Average bus latency per DRAM burst
system.mem_ctrl.dram.avgMemAccLat            24729.84                       # Average memory access latency per DRAM burst
system.mem_ctrl.dram.readRowHits                18697                       # Number of row buffer hits during reads
system.mem_ctrl.dram.writeRowHits                 152                       # Number of row buffer hits during writes
system.mem_ctrl.dram.readRowHitRate             91.01                       # Row buffer hit rate for reads
system.mem_ctrl.dram.writeRowHitRate            93.83                       # Row buffer hit rate for writes
system.mem_ctrl.dram.bytesPerActivate::samples         1854                       # Bytes accessed per row activation
system.mem_ctrl.dram.bytesPerActivate::mean   714.355987                       # Bytes accessed per row activation
system.mem_ctrl.dram.bytesPerActivate::gmean   499.102119                       # Bytes accessed per row activation
system.mem_ctrl.dram.bytesPerActivate::stdev   404.190770                       # Bytes accessed per row activation
system.mem_ctrl.dram.bytesPerActivate::0-127          268     14.46%     14.46% # Bytes accessed per row activation
system.mem_ctrl.dram.bytesPerActivate::128-255          177      9.55%     24.00% # Bytes accessed per row activation
system.mem_ctrl.dram.bytesPerActivate::256-383           75      4.05%     28.05% # Bytes accessed per row activation
system.mem_ctrl.dram.bytesPerActivate::384-511          116      6.26%     34.30% # Bytes accessed per row activation
system.mem_ctrl.dram.bytesPerActivate::512-639           55      2.97%     37.27% # Bytes accessed per row activation
system.mem_ctrl.dram.bytesPerActivate::640-767           15      0.81%     38.08% # Bytes accessed per row activation
system.mem_ctrl.dram.bytesPerActivate::768-895           16      0.86%     38.94% # Bytes accessed per row activation
system.mem_ctrl.dram.bytesPerActivate::896-1023           18      0.97%     39.91% # Bytes accessed per row activation
system.mem_ctrl.dram.bytesPerActivate::1024-1151         1114     60.09%    100.00% # Bytes accessed per row activation
system.mem_ctrl.dram.bytesPerActivate::total         1854                       # Bytes accessed per row activation
system.mem_ctrl.dram.bytesRead                1314880                       # Total number of bytes read from DRAM
system.mem_ctrl.dram.bytesWritten               10368                       # Total number of bytes written to DRAM
system.mem_ctrl.dram.avgRdBW              1383.522064                       # Average DRAM read bandwidth in MiBytes/s
system.mem_ctrl.dram.avgWrBW                10.909252                       # Average DRAM write bandwidth in MiBytes/s
system.mem_ctrl.dram.peakBW                  12800.00                       # Theoretical peak bandwidth in MiByte/s
system.mem_ctrl.dram.busUtil                    10.89                       # Data bus utilization in percentage
system.mem_ctrl.dram.busUtilRead                10.81                       # Data bus utilization in percentage for reads
system.mem_ctrl.dram.busUtilWrite                0.09                       # Data bus utilization in percentage for writes
system.mem_ctrl.dram.pageHitRate                91.03                       # Row buffer hit rate, read and write combined
system.mem_ctrl.dram.power_state.pwrStateResidencyTicks::UNDEFINED    950386000                       # Cumulative time (in ticks) in various power states
system.mem_ctrl.dram.rank0.actEnergy         11652480                       # Energy for activate commands per rank (pJ)
system.mem_ctrl.dram.rank0.preEnergy          6178260                       # Energy for precharge commands per rank (pJ)
system.mem_ctrl.dram.rank0.readEnergy       136473960                       # Energy for read commands per rank (pJ)
system.mem_ctrl.dram.rank0.writeEnergy         610740                       # Energy for write commands per rank (pJ)
system.mem_ctrl.dram.rank0.refreshEnergy 74986080.000000                       # Energy for refresh commands per rank (pJ)
system.mem_ctrl.dram.rank0.actBackEnergy    412901160                       # Energy for active background per rank (pJ)
system.mem_ctrl.dram.rank0.preBackEnergy     17242080                       # Energy for precharge background per rank (pJ)
system.mem_ctrl.dram.rank0.actPowerDownEnergy            0                       # Energy for active power-down per rank (pJ)
system.mem_ctrl.dram.rank0.prePowerDownEnergy            0                       # Energy for precharge power-down per rank (pJ)
system.mem_ctrl.dram.rank0.selfRefreshEnergy            0                       # Energy for self refresh per rank (pJ)
system.mem_ctrl.dram.rank0.totalEnergy      660044760                       # Total energy per rank (pJ)
system.mem_ctrl.dram.rank0.averagePower    694.501771                       # Core power per rank (mW)
system.mem_ctrl.dram.rank0.totalIdleTime            0                       # Total Idle time Per DRAM Rank
system.mem_ctrl.dram.rank0.pwrStateTime::IDLE     28362250                       # Time in different power states
system.mem_ctrl.dram.rank0.pwrStateTime::REF     31720000                       # Time in different power states
system.mem_ctrl.dram.rank0.pwrStateTime::SREF            0                       # Time in different power states
system.mem_ctrl.dram.rank0.pwrStateTime::PRE_PDN            0                       # Time in different power states
system.mem_ctrl.dram.rank0.pwrStateTime::ACT    890303750                       # Time in different power states
system.mem_ctrl.dram.rank0.pwrStateTime::ACT_PDN            0                       # Time in different power states
system.mem_ctrl.dram.rank1.actEnergy          1613640                       # Energy for activate commands per rank (pJ)
system.mem_ctrl.dram.rank1.preEnergy           857670                       # Energy for precharge commands per rank (pJ)
system.mem_ctrl.dram.rank1.readEnergy        10217340                       # Energy for read commands per rank (pJ)
system.mem_ctrl.dram.rank1.writeEnergy         234900                       # Energy for write commands per rank (pJ)
system.mem_ctrl.dram.rank1.refreshEnergy 74986080.000000                       # Energy for refresh commands per rank (pJ)
system.mem_ctrl.dram.rank1.actBackEnergy     58572060                       # Energy for active background per rank (pJ)
system.mem_ctrl.dram.rank1.preBackEnergy    315624480                       # Energy for precharge background per rank (pJ)
system.mem_ctrl.dram.rank1.actPowerDownEnergy            0                       # Energy for active power-down per rank (pJ)
system.mem_ctrl.dram.rank1.prePowerDownEnergy            0                       # Energy for precharge power-down per rank (pJ)
system.mem_ctrl.dram.rank1.selfRefreshEnergy            0                       # Energy for self refresh per rank (pJ)
system.mem_ctrl.dram.rank1.totalEnergy      462106170                       # Total energy per rank (pJ)
system.mem_ctrl.dram.rank1.averagePower    486.229984                       # Core power per rank (mW)
system.mem_ctrl.dram.rank1.totalIdleTime            0                       # Total Idle time Per DRAM Rank
system.mem_ctrl.dram.rank1.pwrStateTime::IDLE    819911750                       # Time in different power states
system.mem_ctrl.dram.rank1.pwrStateTime::REF     31720000                       # Time in different power states
system.mem_ctrl.dram.rank1.pwrStateTime::SREF            0                       # Time in different power states
system.mem_ctrl.dram.rank1.pwrStateTime::PRE_PDN            0                       # Time in different power states
system.mem_ctrl.dram.rank1.pwrStateTime::ACT     98754250                       # Time in different power states
system.mem_ctrl.dram.rank1.pwrStateTime::ACT_PDN            0                       # Time in different power states
system.mem_ctrl.power_state.pwrStateResidencyTicks::UNDEFINED    950386000                       # Cumulative time (in ticks) in various power states
system.membus.trans_dist::ReadReq               20825                       # Transaction distribution
system.membus.trans_dist::ReadResp              20823                       # Transaction distribution
system.membus.trans_dist::WriteReq               1627                       # Transaction distribution
system.membus.trans_dist::WriteResp              1627                       # Transaction distribution
system.membus.pkt_count_system.cpu.icache_port::system.mem_ctrl.port        36828                       # Packet count per connected requestor and responder (bytes)
system.membus.pkt_count_system.cpu.icache_port::total        36828                       # Packet count per connected requestor and responder (bytes)
system.membus.pkt_count_system.cpu.dcache_port::system.mem_ctrl.port         8074                       # Packet count per connected requestor and responder (bytes)
system.membus.pkt_count_system.cpu.dcache_port::total         8074                       # Packet count per connected requestor and responder (bytes)
system.membus.pkt_count::total                  44902                       # Packet count per connected requestor and responder (bytes)
system.membus.pkt_size_system.cpu.icache_port::system.mem_ctrl.port      1178432                       # Cumulative packet size per connected requestor and responder (bytes)
system.membus.pkt_size_system.cpu.icache_port::total      1178432                       # Cumulative packet size per connected requestor and responder (bytes)
system.membus.pkt_size_system.cpu.dcache_port::system.mem_ctrl.port        27737                       # Cumulative packet size per connected requestor and responder (bytes)
system.membus.pkt_size_system.cpu.dcache_port::total        27737                       # Cumulative packet size per connected requestor and responder (bytes)
system.membus.pkt_size::total                 1206169                       # Cumulative packet size per connected requestor and responder (bytes)
system.membus.snoops                                0                       # Total snoops (count)
system.membus.snoopTraffic                          0                       # Total snoop traffic (bytes)
system.membus.snoop_fanout::samples             22452                       # Request fanout histogram
system.membus.snoop_fanout::mean                    0                       # Request fanout histogram
system.membus.snoop_fanout::stdev                   0                       # Request fanout histogram
system.membus.snoop_fanout::underflows              0      0.00%      0.00% # Request fanout histogram
system.membus.snoop_fanout::0                   22452    100.00%    100.00% # Request fanout histogram
system.membus.snoop_fanout::1                       0      0.00%    100.00% # Request fanout histogram
system.membus.snoop_fanout::overflows               0      0.00%    100.00% # Request fanout histogram
system.membus.snoop_fanout::min_value               0                       # Request fanout histogram
system.membus.snoop_fanout::max_value               0                       # Request fanout histogram
system.membus.snoop_fanout::total               22452                       # Request fanout histogram
system.membus.power_state.pwrStateResidencyTicks::UNDEFINED    950386000                       # Cumulative time (in ticks) in various power states
system.membus.reqLayer2.occupancy            24079000                       # Layer occupancy (ticks)
system.membus.reqLayer2.utilization               2.5                       # Layer utilization (%)
system.membus.respLayer0.occupancy           97039000                       # Layer occupancy (ticks)
system.membus.respLayer0.utilization             10.2                       # Layer utilization (%)
system.membus.respLayer1.occupancy            7460000                       # Layer occupancy (ticks)
system.membus.respLayer1.utilization              0.8                       # Layer utilization (%)

---------- End Simulation Statistics   ----------
