gem5 Simulator System.  http://gem5.org
gem5 is copyrighted software; use the --copyright option for details.

gem5 version 20.1.0.2
gem5 compiled Nov  5 2023 00:30:30
gem5 started Nov  5 2023 23:06:49
gem5 executing on ARCH-750, pid 3273126
command line: build/X86/gem5.opt -re --outdir=/data/home/bhow/450_Project/results/X86/run_micro/DP1f/LocalBP gem5-config/run_micro.py LocalBP microbenchmark/DP1f/bench.X86

Global frequency set at 1000000000000 ticks per second
Exit Eventexiting with last active thread context
Terminated simulation before reaching ROI!
Performance statistics:
Simulated time: 0.00s
Instructions executed: 123018
Ran a total of 0.001019607 simulated seconds
Total wallclock time: 4.56s, 0.08 min
