
---------- Begin Simulation Statistics ----------
final_tick                                 1019607000                       # Number of ticks from beginning of simulation (restored from checkpoints and never reset)
host_inst_rate                                  27120                       # Simulator instruction rate (inst/s)
host_mem_usage                                2209500                       # Number of bytes of host memory used
host_op_rate                                    54132                       # Simulator op (including micro ops) rate (op/s)
host_seconds                                     4.54                       # Real time elapsed on the host
host_tick_rate                              224764281                       # Simulator tick rate (ticks/s)
sim_freq                                 1000000000000                       # Frequency of simulated ticks
sim_insts                                      123018                       # Number of instructions simulated
sim_ops                                        245559                       # Number of ops (including micro ops) simulated
sim_seconds                                  0.001020                       # Number of seconds simulated
sim_ticks                                  1019607000                       # Number of ticks simulated
system.cpu.cc_regfile_reads                     92746                       # number of cc regfile reads
system.cpu.cc_regfile_writes                    72713                       # number of cc regfile writes
system.cpu.committedInsts                      123018                       # Number of Instructions Simulated
system.cpu.committedOps                        245559                       # Number of Ops (including micro ops) Simulated
system.cpu.cpi                               8.288283                       # CPI: Cycles Per Instruction
system.cpu.cpi_total                         8.288283                       # CPI: Total CPI of All Threads
system.cpu.fp_regfile_reads                    116145                       # number of floating regfile reads
system.cpu.fp_regfile_writes                    99046                       # number of floating regfile writes
system.cpu.idleCycles                           39226                       # Total number of cycles that the CPU has spent unscheduled due to idling
system.cpu.iew.branchMispredicts                  535                       # Number of branch mispredicts detected at execute
system.cpu.iew.exec_branches                    18660                       # Number of branches executed
system.cpu.iew.exec_nop                             0                       # number of nop insts executed
system.cpu.iew.exec_rate                     0.251603                       # Inst execution rate
system.cpu.iew.exec_refs                        56678                       # number of memory reference insts executed
system.cpu.iew.exec_stores                      18512                       # Number of stores executed
system.cpu.iew.exec_swp                             0                       # number of swp insts executed
system.cpu.iew.iewBlockCycles                    2075                       # Number of cycles IEW is blocking
system.cpu.iew.iewDispLoadInsts                 35810                       # Number of dispatched load instructions
system.cpu.iew.iewDispNonSpecInsts                  2                       # Number of dispatched non-speculative instructions
system.cpu.iew.iewDispSquashedInsts                 8                       # Number of squashed instructions skipped by dispatch
system.cpu.iew.iewDispStoreInsts                18872                       # Number of dispatched store instructions
system.cpu.iew.iewDispatchedInsts              256977                       # Number of instructions dispatched to IQ
system.cpu.iew.iewExecLoadInsts                 38166                       # Number of load instructions executed
system.cpu.iew.iewExecSquashedInsts               207                       # Number of squashed instructions skipped in execute
system.cpu.iew.iewExecutedInsts                256536                       # Number of executed instructions
system.cpu.iew.iewIQFullEvents                     31                       # Number of times the IQ has become full, causing a stall
system.cpu.iew.iewIdleCycles                        0                       # Number of cycles IEW is idle
system.cpu.iew.iewLSQFullEvents                  2747                       # Number of times the LSQ has become full, causing a stall
system.cpu.iew.iewSquashCycles                    527                       # Number of cycles IEW is squashing
system.cpu.iew.iewUnblockCycles                  2910                       # Number of cycles IEW is unblocking
system.cpu.iew.memOrderViolationEvents             19                       # Number of memory order violations
system.cpu.iew.predictedNotTakenIncorrect          494                       # Number of branches that were predicted not taken incorrectly
system.cpu.iew.predictedTakenIncorrect             41                       # Number of branches that were predicted taken incorrectly
system.cpu.iew.wb_consumers                    187654                       # num instructions consuming a value
system.cpu.iew.wb_count                        252735                       # cumulative count of insts written-back
system.cpu.iew.wb_fanout                     0.782616                       # average fanout of values written-back
system.cpu.iew.wb_producers                    146861                       # num instructions producing a value
system.cpu.iew.wb_rate                       0.247875                       # insts written-back per cycle
system.cpu.iew.wb_sent                         252877                       # cumulative count of insts sent to commit
system.cpu.int_regfile_reads                   233430                       # number of integer regfile reads
system.cpu.int_regfile_writes                  116134                       # number of integer regfile writes
system.cpu.ipc                               0.120652                       # IPC: Instructions Per Cycle
system.cpu.ipc_total                         0.120652                       # IPC: Total IPC of All Threads
system.cpu.iq.FU_type_0::No_OpClass               587      0.23%      0.23% # Type of FU issued
system.cpu.iq.FU_type_0::IntAlu                133252     51.90%     52.13% # Type of FU issued
system.cpu.iq.FU_type_0::IntMult                    5      0.00%     52.13% # Type of FU issued
system.cpu.iq.FU_type_0::IntDiv                    21      0.01%     52.14% # Type of FU issued
system.cpu.iq.FU_type_0::FloatAdd               32950     12.83%     64.97% # Type of FU issued
system.cpu.iq.FU_type_0::FloatCmp                   0      0.00%     64.97% # Type of FU issued
system.cpu.iq.FU_type_0::FloatCvt                   0      0.00%     64.97% # Type of FU issued
system.cpu.iq.FU_type_0::FloatMult                  0      0.00%     64.97% # Type of FU issued
system.cpu.iq.FU_type_0::FloatMultAcc               0      0.00%     64.97% # Type of FU issued
system.cpu.iq.FU_type_0::FloatDiv                   0      0.00%     64.97% # Type of FU issued
system.cpu.iq.FU_type_0::FloatMisc                  0      0.00%     64.97% # Type of FU issued
system.cpu.iq.FU_type_0::FloatSqrt                  0      0.00%     64.97% # Type of FU issued
system.cpu.iq.FU_type_0::SimdAdd                    0      0.00%     64.97% # Type of FU issued
system.cpu.iq.FU_type_0::SimdAddAcc                 0      0.00%     64.97% # Type of FU issued
system.cpu.iq.FU_type_0::SimdAlu                  112      0.04%     65.02% # Type of FU issued
system.cpu.iq.FU_type_0::SimdCmp                    0      0.00%     65.02% # Type of FU issued
system.cpu.iq.FU_type_0::SimdCvt                   46      0.02%     65.04% # Type of FU issued
system.cpu.iq.FU_type_0::SimdMisc                 218      0.08%     65.12% # Type of FU issued
system.cpu.iq.FU_type_0::SimdMult                   0      0.00%     65.12% # Type of FU issued
system.cpu.iq.FU_type_0::SimdMultAcc                0      0.00%     65.12% # Type of FU issued
system.cpu.iq.FU_type_0::SimdShift                  0      0.00%     65.12% # Type of FU issued
system.cpu.iq.FU_type_0::SimdShiftAcc               0      0.00%     65.12% # Type of FU issued
system.cpu.iq.FU_type_0::SimdDiv                    0      0.00%     65.12% # Type of FU issued
system.cpu.iq.FU_type_0::SimdSqrt                   0      0.00%     65.12% # Type of FU issued
system.cpu.iq.FU_type_0::SimdFloatAdd           16394      6.39%     71.51% # Type of FU issued
system.cpu.iq.FU_type_0::SimdFloatAlu               0      0.00%     71.51% # Type of FU issued
system.cpu.iq.FU_type_0::SimdFloatCmp               0      0.00%     71.51% # Type of FU issued
system.cpu.iq.FU_type_0::SimdFloatCvt               2      0.00%     71.51% # Type of FU issued
system.cpu.iq.FU_type_0::SimdFloatDiv               0      0.00%     71.51% # Type of FU issued
system.cpu.iq.FU_type_0::SimdFloatMisc              0      0.00%     71.51% # Type of FU issued
system.cpu.iq.FU_type_0::SimdFloatMult          16391      6.38%     77.89% # Type of FU issued
system.cpu.iq.FU_type_0::SimdFloatMultAcc            0      0.00%     77.89% # Type of FU issued
system.cpu.iq.FU_type_0::SimdFloatSqrt              0      0.00%     77.89% # Type of FU issued
system.cpu.iq.FU_type_0::SimdReduceAdd              0      0.00%     77.89% # Type of FU issued
system.cpu.iq.FU_type_0::SimdReduceAlu              0      0.00%     77.89% # Type of FU issued
system.cpu.iq.FU_type_0::SimdReduceCmp              0      0.00%     77.89% # Type of FU issued
system.cpu.iq.FU_type_0::SimdFloatReduceAdd            0      0.00%     77.89% # Type of FU issued
system.cpu.iq.FU_type_0::SimdFloatReduceCmp            0      0.00%     77.89% # Type of FU issued
system.cpu.iq.FU_type_0::SimdAes                    0      0.00%     77.89% # Type of FU issued
system.cpu.iq.FU_type_0::SimdAesMix                 0      0.00%     77.89% # Type of FU issued
system.cpu.iq.FU_type_0::SimdSha1Hash               0      0.00%     77.89% # Type of FU issued
system.cpu.iq.FU_type_0::SimdSha1Hash2              0      0.00%     77.89% # Type of FU issued
system.cpu.iq.FU_type_0::SimdSha256Hash             0      0.00%     77.89% # Type of FU issued
system.cpu.iq.FU_type_0::SimdSha256Hash2            0      0.00%     77.89% # Type of FU issued
system.cpu.iq.FU_type_0::SimdShaSigma2              0      0.00%     77.89% # Type of FU issued
system.cpu.iq.FU_type_0::SimdShaSigma3              0      0.00%     77.89% # Type of FU issued
system.cpu.iq.FU_type_0::SimdPredAlu                0      0.00%     77.89% # Type of FU issued
system.cpu.iq.FU_type_0::MemRead                 4191      1.63%     79.52% # Type of FU issued
system.cpu.iq.FU_type_0::MemWrite                1644      0.64%     80.16% # Type of FU issued
system.cpu.iq.FU_type_0::FloatMemRead           34044     13.26%     93.42% # Type of FU issued
system.cpu.iq.FU_type_0::FloatMemWrite          16886      6.58%    100.00% # Type of FU issued
system.cpu.iq.FU_type_0::IprAccess                  0      0.00%    100.00% # Type of FU issued
system.cpu.iq.FU_type_0::InstPrefetch               0      0.00%    100.00% # Type of FU issued
system.cpu.iq.FU_type_0::total                 256743                       # Type of FU issued
system.cpu.iq.fp_alu_accesses                  117210                       # Number of floating point alu accesses
system.cpu.iq.fp_inst_queue_reads              234404                       # Number of floating instruction queue reads
system.cpu.iq.fp_inst_queue_wakeup_accesses       115975                       # Number of floating instruction queue wakeup accesses
system.cpu.iq.fp_inst_queue_writes             116333                       # Number of floating instruction queue writes
system.cpu.iq.fu_busy_cnt                         170                       # FU busy when requested
system.cpu.iq.fu_busy_rate                   0.000662                       # FU busy rate (busy events/executed inst)
system.cpu.iq.fu_full::No_OpClass                   0      0.00%      0.00% # attempts to use FU when none available
system.cpu.iq.fu_full::IntAlu                      69     40.59%     40.59% # attempts to use FU when none available
system.cpu.iq.fu_full::IntMult                      0      0.00%     40.59% # attempts to use FU when none available
system.cpu.iq.fu_full::IntDiv                       0      0.00%     40.59% # attempts to use FU when none available
system.cpu.iq.fu_full::FloatAdd                     0      0.00%     40.59% # attempts to use FU when none available
system.cpu.iq.fu_full::FloatCmp                     0      0.00%     40.59% # attempts to use FU when none available
system.cpu.iq.fu_full::FloatCvt                     0      0.00%     40.59% # attempts to use FU when none available
system.cpu.iq.fu_full::FloatMult                    0      0.00%     40.59% # attempts to use FU when none available
system.cpu.iq.fu_full::FloatMultAcc                 0      0.00%     40.59% # attempts to use FU when none available
system.cpu.iq.fu_full::FloatDiv                     0      0.00%     40.59% # attempts to use FU when none available
system.cpu.iq.fu_full::FloatMisc                    0      0.00%     40.59% # attempts to use FU when none available
system.cpu.iq.fu_full::FloatSqrt                    0      0.00%     40.59% # attempts to use FU when none available
system.cpu.iq.fu_full::SimdAdd                      0      0.00%     40.59% # attempts to use FU when none available
system.cpu.iq.fu_full::SimdAddAcc                   0      0.00%     40.59% # attempts to use FU when none available
system.cpu.iq.fu_full::SimdAlu                      9      5.29%     45.88% # attempts to use FU when none available
system.cpu.iq.fu_full::SimdCmp                      0      0.00%     45.88% # attempts to use FU when none available
system.cpu.iq.fu_full::SimdCvt                      0      0.00%     45.88% # attempts to use FU when none available
system.cpu.iq.fu_full::SimdMisc                     0      0.00%     45.88% # attempts to use FU when none available
system.cpu.iq.fu_full::SimdMult                     0      0.00%     45.88% # attempts to use FU when none available
system.cpu.iq.fu_full::SimdMultAcc                  0      0.00%     45.88% # attempts to use FU when none available
system.cpu.iq.fu_full::SimdShift                    0      0.00%     45.88% # attempts to use FU when none available
system.cpu.iq.fu_full::SimdShiftAcc                 0      0.00%     45.88% # attempts to use FU when none available
system.cpu.iq.fu_full::SimdDiv                      0      0.00%     45.88% # attempts to use FU when none available
system.cpu.iq.fu_full::SimdSqrt                     0      0.00%     45.88% # attempts to use FU when none available
system.cpu.iq.fu_full::SimdFloatAdd                 0      0.00%     45.88% # attempts to use FU when none available
system.cpu.iq.fu_full::SimdFloatAlu                 0      0.00%     45.88% # attempts to use FU when none available
system.cpu.iq.fu_full::SimdFloatCmp                 0      0.00%     45.88% # attempts to use FU when none available
system.cpu.iq.fu_full::SimdFloatCvt                 0      0.00%     45.88% # attempts to use FU when none available
system.cpu.iq.fu_full::SimdFloatDiv                 0      0.00%     45.88% # attempts to use FU when none available
system.cpu.iq.fu_full::SimdFloatMisc                0      0.00%     45.88% # attempts to use FU when none available
system.cpu.iq.fu_full::SimdFloatMult                0      0.00%     45.88% # attempts to use FU when none available
system.cpu.iq.fu_full::SimdFloatMultAcc             0      0.00%     45.88% # attempts to use FU when none available
system.cpu.iq.fu_full::SimdFloatSqrt                0      0.00%     45.88% # attempts to use FU when none available
system.cpu.iq.fu_full::SimdReduceAdd                0      0.00%     45.88% # attempts to use FU when none available
system.cpu.iq.fu_full::SimdReduceAlu                0      0.00%     45.88% # attempts to use FU when none available
system.cpu.iq.fu_full::SimdReduceCmp                0      0.00%     45.88% # attempts to use FU when none available
system.cpu.iq.fu_full::SimdFloatReduceAdd            0      0.00%     45.88% # attempts to use FU when none available
system.cpu.iq.fu_full::SimdFloatReduceCmp            0      0.00%     45.88% # attempts to use FU when none available
system.cpu.iq.fu_full::SimdAes                      0      0.00%     45.88% # attempts to use FU when none available
system.cpu.iq.fu_full::SimdAesMix                   0      0.00%     45.88% # attempts to use FU when none available
system.cpu.iq.fu_full::SimdSha1Hash                 0      0.00%     45.88% # attempts to use FU when none available
system.cpu.iq.fu_full::SimdSha1Hash2                0      0.00%     45.88% # attempts to use FU when none available
system.cpu.iq.fu_full::SimdSha256Hash               0      0.00%     45.88% # attempts to use FU when none available
system.cpu.iq.fu_full::SimdSha256Hash2              0      0.00%     45.88% # attempts to use FU when none available
system.cpu.iq.fu_full::SimdShaSigma2                0      0.00%     45.88% # attempts to use FU when none available
system.cpu.iq.fu_full::SimdShaSigma3                0      0.00%     45.88% # attempts to use FU when none available
system.cpu.iq.fu_full::SimdPredAlu                  0      0.00%     45.88% # attempts to use FU when none available
system.cpu.iq.fu_full::MemRead                     58     34.12%     80.00% # attempts to use FU when none available
system.cpu.iq.fu_full::MemWrite                    18     10.59%     90.59% # attempts to use FU when none available
system.cpu.iq.fu_full::FloatMemRead                11      6.47%     97.06% # attempts to use FU when none available
system.cpu.iq.fu_full::FloatMemWrite                5      2.94%    100.00% # attempts to use FU when none available
system.cpu.iq.fu_full::IprAccess                    0      0.00%    100.00% # attempts to use FU when none available
system.cpu.iq.fu_full::InstPrefetch                 0      0.00%    100.00% # attempts to use FU when none available
system.cpu.iq.int_alu_accesses                 139116                       # Number of integer alu accesses
system.cpu.iq.int_inst_queue_reads            1259684                       # Number of integer instruction queue reads
system.cpu.iq.int_inst_queue_wakeup_accesses       136760                       # Number of integer instruction queue wakeup accesses
system.cpu.iq.int_inst_queue_writes            152074                       # Number of integer instruction queue writes
system.cpu.iq.iqInstsAdded                     256975                       # Number of instructions added to the IQ (excludes non-spec)
system.cpu.iq.iqInstsIssued                    256743                       # Number of instructions issued
system.cpu.iq.iqNonSpecInstsAdded                   2                       # Number of non-speculative instructions added to the IQ
system.cpu.iq.iqSquashedInstsExamined           11412                       # Number of squashed instructions iterated over during squash; mainly for profiling
system.cpu.iq.iqSquashedInstsIssued                50                       # Number of squashed instructions issued
system.cpu.iq.iqSquashedNonSpecRemoved              2                       # Number of squashed non-spec instructions that were removed
system.cpu.iq.iqSquashedOperandsExamined        15334                       # Number of squashed operands that are examined and possibly removed from graph
system.cpu.iq.issued_per_cycle::samples        980382                       # Number of insts issued each cycle
system.cpu.iq.issued_per_cycle::mean         0.261881                       # Number of insts issued each cycle
system.cpu.iq.issued_per_cycle::stdev        0.687971                       # Number of insts issued each cycle
system.cpu.iq.issued_per_cycle::underflows            0      0.00%      0.00% # Number of insts issued each cycle
system.cpu.iq.issued_per_cycle::0              809052     82.52%     82.52% # Number of insts issued each cycle
system.cpu.iq.issued_per_cycle::1              119685     12.21%     94.73% # Number of insts issued each cycle
system.cpu.iq.issued_per_cycle::2               28834      2.94%     97.67% # Number of insts issued each cycle
system.cpu.iq.issued_per_cycle::3               15817      1.61%     99.29% # Number of insts issued each cycle
system.cpu.iq.issued_per_cycle::4                5066      0.52%     99.80% # Number of insts issued each cycle
system.cpu.iq.issued_per_cycle::5                 769      0.08%     99.88% # Number of insts issued each cycle
system.cpu.iq.issued_per_cycle::6                 527      0.05%     99.94% # Number of insts issued each cycle
system.cpu.iq.issued_per_cycle::7                 388      0.04%     99.98% # Number of insts issued each cycle
system.cpu.iq.issued_per_cycle::8                 244      0.02%    100.00% # Number of insts issued each cycle
system.cpu.iq.issued_per_cycle::overflows            0      0.00%    100.00% # Number of insts issued each cycle
system.cpu.iq.issued_per_cycle::min_value            0                       # Number of insts issued each cycle
system.cpu.iq.issued_per_cycle::max_value            8                       # Number of insts issued each cycle
system.cpu.iq.issued_per_cycle::total          980382                       # Number of insts issued each cycle
system.cpu.iq.rate                           0.251806                       # Inst issue rate
system.cpu.iq.vec_alu_accesses                      0                       # Number of vector alu accesses
system.cpu.iq.vec_inst_queue_reads                  0                       # Number of vector instruction queue reads
system.cpu.iq.vec_inst_queue_wakeup_accesses            0                       # Number of vector instruction queue wakeup accesses
system.cpu.iq.vec_inst_queue_writes                 0                       # Number of vector instruction queue writes
system.cpu.memDep0.conflictingLoads             16395                       # Number of conflicting loads.
system.cpu.memDep0.conflictingStores            16387                       # Number of conflicting stores.
system.cpu.memDep0.insertedLoads                35810                       # Number of loads inserted to the mem dependence unit.
system.cpu.memDep0.insertedStores               18872                       # Number of stores inserted to the mem dependence unit.
system.cpu.misc_regfile_reads                   95258                       # number of misc regfile reads
system.cpu.numCycles                          1019608                       # number of cpu cycles simulated
system.cpu.numWorkItemsCompleted                    0                       # number of work items this cpu completed
system.cpu.numWorkItemsStarted                      0                       # number of work items this cpu started
system.cpu.timesIdled                            1518                       # Number of times that the entire CPU went into an idle state and unscheduled itself
system.cpu.workload.numSyscalls                    10                       # Number of system calls
system.membus.snoop_filter.hit_multi_requests            0                       # Number of requests hitting in the snoop filter with multiple (>1) holders of the requested data.
system.membus.snoop_filter.hit_multi_snoops            0                       # Number of snoops hitting in the snoop filter with multiple (>1) holders of the requested data.
system.membus.snoop_filter.hit_single_requests            0                       # Number of requests hitting in the snoop filter with a single holder of the requested data.
system.membus.snoop_filter.hit_single_snoops            0                       # Number of snoops hitting in the snoop filter with a single holder of the requested data.
system.membus.snoop_filter.tot_requests             0                       # Total number of requests made to the snoop filter.
system.membus.snoop_filter.tot_snoops               0                       # Total number of snoops made to the snoop filter.
system.clk_domain.clock                          1000                       # Clock period in ticks
system.clk_domain.voltage_domain.voltage            1                       # Voltage in Volts
system.cpu.branchPred.lookups                   19983                       # Number of BP lookups
system.cpu.branchPred.condPredicted             18961                       # Number of conditional branches predicted
system.cpu.branchPred.condIncorrect               662                       # Number of conditional branches incorrect
system.cpu.branchPred.BTBLookups                17766                       # Number of BTB lookups
system.cpu.branchPred.BTBHits                   17467                       # Number of BTB hits
system.cpu.branchPred.BTBHitPct             98.317010                       # BTB Hit Percentage
system.cpu.branchPred.RASUsed                     209                       # Number of times the RAS was used to get a target.
system.cpu.branchPred.RASIncorrect                  0                       # Number of incorrect RAS predictions.
system.cpu.branchPred.indirectLookups             397                       # Number of indirect predictor lookups.
system.cpu.branchPred.indirectHits                  9                       # Number of indirect target hits.
system.cpu.branchPred.indirectMisses              388                       # Number of indirect misses.
system.cpu.branchPred.indirectMispredicted           99                       # Number of mispredicted indirect branches.
system.cpu.commit.commitSquashedInsts           11389                       # The number of squashed insts skipped by commit
system.cpu.commit.branchMispredicts               496                       # The number of times a branch was mispredicted
system.cpu.commit.numCommittedDist::samples       978530                       # Number of insts commited each cycle
system.cpu.commit.numCommittedDist::mean     0.250947                       # Number of insts commited each cycle
system.cpu.commit.numCommittedDist::stdev     1.116725                       # Number of insts commited each cycle
system.cpu.commit.numCommittedDist::underflows            0      0.00%      0.00% # Number of insts commited each cycle
system.cpu.commit.numCommittedDist::0          890743     91.03%     91.03% # Number of insts commited each cycle
system.cpu.commit.numCommittedDist::1           34997      3.58%     94.61% # Number of insts commited each cycle
system.cpu.commit.numCommittedDist::2           33952      3.47%     98.07% # Number of insts commited each cycle
system.cpu.commit.numCommittedDist::3             837      0.09%     98.16% # Number of insts commited each cycle
system.cpu.commit.numCommittedDist::4             587      0.06%     98.22% # Number of insts commited each cycle
system.cpu.commit.numCommittedDist::5             352      0.04%     98.26% # Number of insts commited each cycle
system.cpu.commit.numCommittedDist::6             139      0.01%     98.27% # Number of insts commited each cycle
system.cpu.commit.numCommittedDist::7             179      0.02%     98.29% # Number of insts commited each cycle
system.cpu.commit.numCommittedDist::8           16744      1.71%    100.00% # Number of insts commited each cycle
system.cpu.commit.numCommittedDist::overflows            0      0.00%    100.00% # Number of insts commited each cycle
system.cpu.commit.numCommittedDist::min_value            0                       # Number of insts commited each cycle
system.cpu.commit.numCommittedDist::max_value            8                       # Number of insts commited each cycle
system.cpu.commit.numCommittedDist::total       978530                       # Number of insts commited each cycle
system.cpu.commit.instsCommitted               123018                       # Number of instructions committed
system.cpu.commit.opsCommitted                 245559                       # Number of ops (including micro ops) committed
system.cpu.commit.memRefs                       52317                       # Number of memory references committed
system.cpu.commit.loads                         34307                       # Number of loads committed
system.cpu.commit.amos                              0                       # Number of atomic instructions committed
system.cpu.commit.membars                           0                       # Number of memory barriers committed
system.cpu.commit.branches                      18116                       # Number of branches committed
system.cpu.commit.vector                            0                       # Number of committed Vector instructions.
system.cpu.commit.floating                     115853                       # Number of committed floating point instructions.
system.cpu.commit.integer                      179264                       # Number of committed integer instructions.
system.cpu.commit.functionCalls                   147                       # Number of function calls committed.
system.cpu.commit.committedInstType_0::No_OpClass          287      0.12%      0.12% # Class of committed instruction
system.cpu.commit.committedInstType_0::IntAlu       126893     51.68%     51.79% # Class of committed instruction
system.cpu.commit.committedInstType_0::IntMult            5      0.00%     51.79% # Class of committed instruction
system.cpu.commit.committedInstType_0::IntDiv           21      0.01%     51.80% # Class of committed instruction
system.cpu.commit.committedInstType_0::FloatAdd        32905     13.40%     65.20% # Class of committed instruction
system.cpu.commit.committedInstType_0::FloatCmp            0      0.00%     65.20% # Class of committed instruction
system.cpu.commit.committedInstType_0::FloatCvt            0      0.00%     65.20% # Class of committed instruction
system.cpu.commit.committedInstType_0::FloatMult            0      0.00%     65.20% # Class of committed instruction
system.cpu.commit.committedInstType_0::FloatMultAcc            0      0.00%     65.20% # Class of committed instruction
system.cpu.commit.committedInstType_0::FloatDiv            0      0.00%     65.20% # Class of committed instruction
system.cpu.commit.committedInstType_0::FloatMisc            0      0.00%     65.20% # Class of committed instruction
system.cpu.commit.committedInstType_0::FloatSqrt            0      0.00%     65.20% # Class of committed instruction
system.cpu.commit.committedInstType_0::SimdAdd            0      0.00%     65.20% # Class of committed instruction
system.cpu.commit.committedInstType_0::SimdAddAcc            0      0.00%     65.20% # Class of committed instruction
system.cpu.commit.committedInstType_0::SimdAlu           96      0.04%     65.24% # Class of committed instruction
system.cpu.commit.committedInstType_0::SimdCmp            0      0.00%     65.24% # Class of committed instruction
system.cpu.commit.committedInstType_0::SimdCvt           46      0.02%     65.26% # Class of committed instruction
system.cpu.commit.committedInstType_0::SimdMisc          217      0.09%     65.35% # Class of committed instruction
system.cpu.commit.committedInstType_0::SimdMult            0      0.00%     65.35% # Class of committed instruction
system.cpu.commit.committedInstType_0::SimdMultAcc            0      0.00%     65.35% # Class of committed instruction
system.cpu.commit.committedInstType_0::SimdShift            0      0.00%     65.35% # Class of committed instruction
system.cpu.commit.committedInstType_0::SimdShiftAcc            0      0.00%     65.35% # Class of committed instruction
system.cpu.commit.committedInstType_0::SimdDiv            0      0.00%     65.35% # Class of committed instruction
system.cpu.commit.committedInstType_0::SimdSqrt            0      0.00%     65.35% # Class of committed instruction
system.cpu.commit.committedInstType_0::SimdFloatAdd        16386      6.67%     72.02% # Class of committed instruction
system.cpu.commit.committedInstType_0::SimdFloatAlu            0      0.00%     72.02% # Class of committed instruction
system.cpu.commit.committedInstType_0::SimdFloatCmp            0      0.00%     72.02% # Class of committed instruction
system.cpu.commit.committedInstType_0::SimdFloatCvt            2      0.00%     72.02% # Class of committed instruction
system.cpu.commit.committedInstType_0::SimdFloatDiv            0      0.00%     72.02% # Class of committed instruction
system.cpu.commit.committedInstType_0::SimdFloatMisc            0      0.00%     72.02% # Class of committed instruction
system.cpu.commit.committedInstType_0::SimdFloatMult        16384      6.67%     78.69% # Class of committed instruction
system.cpu.commit.committedInstType_0::SimdFloatMultAcc            0      0.00%     78.69% # Class of committed instruction
system.cpu.commit.committedInstType_0::SimdFloatSqrt            0      0.00%     78.69% # Class of committed instruction
system.cpu.commit.committedInstType_0::SimdReduceAdd            0      0.00%     78.69% # Class of committed instruction
system.cpu.commit.committedInstType_0::SimdReduceAlu            0      0.00%     78.69% # Class of committed instruction
system.cpu.commit.committedInstType_0::SimdReduceCmp            0      0.00%     78.69% # Class of committed instruction
system.cpu.commit.committedInstType_0::SimdFloatReduceAdd            0      0.00%     78.69% # Class of committed instruction
system.cpu.commit.committedInstType_0::SimdFloatReduceCmp            0      0.00%     78.69% # Class of committed instruction
system.cpu.commit.committedInstType_0::SimdAes            0      0.00%     78.69% # Class of committed instruction
system.cpu.commit.committedInstType_0::SimdAesMix            0      0.00%     78.69% # Class of committed instruction
system.cpu.commit.committedInstType_0::SimdSha1Hash            0      0.00%     78.69% # Class of committed instruction
system.cpu.commit.committedInstType_0::SimdSha1Hash2            0      0.00%     78.69% # Class of committed instruction
system.cpu.commit.committedInstType_0::SimdSha256Hash            0      0.00%     78.69% # Class of committed instruction
system.cpu.commit.committedInstType_0::SimdSha256Hash2            0      0.00%     78.69% # Class of committed instruction
system.cpu.commit.committedInstType_0::SimdShaSigma2            0      0.00%     78.69% # Class of committed instruction
system.cpu.commit.committedInstType_0::SimdShaSigma3            0      0.00%     78.69% # Class of committed instruction
system.cpu.commit.committedInstType_0::SimdPredAlu            0      0.00%     78.69% # Class of committed instruction
system.cpu.commit.committedInstType_0::MemRead         1482      0.60%     79.30% # Class of committed instruction
system.cpu.commit.committedInstType_0::MemWrite         1159      0.47%     79.77% # Class of committed instruction
system.cpu.commit.committedInstType_0::FloatMemRead        32825     13.37%     93.14% # Class of committed instruction
system.cpu.commit.committedInstType_0::FloatMemWrite        16851      6.86%    100.00% # Class of committed instruction
system.cpu.commit.committedInstType_0::IprAccess            0      0.00%    100.00% # Class of committed instruction
system.cpu.commit.committedInstType_0::InstPrefetch            0      0.00%    100.00% # Class of committed instruction
system.cpu.commit.committedInstType_0::total       245559                       # Class of committed instruction
system.cpu.commit.commitEligibleSamples         16744                       # number cycles where commit BW limit reached
system.cpu.decode.idleCycles                    60055                       # Number of cycles decode is idle
system.cpu.decode.blockedCycles                886648                       # Number of cycles decode is blocked
system.cpu.decode.runCycles                      4077                       # Number of cycles decode is running
system.cpu.decode.unblockCycles                 29075                       # Number of cycles decode is unblocking
system.cpu.decode.squashCycles                    527                       # Number of cycles decode is squashing
system.cpu.decode.branchResolved                17588                       # Number of times decode resolved a  branch
system.cpu.decode.branchMispred                   212                       # Number of times decode detected a branch misprediction
system.cpu.decode.decodedInsts                 257546                       # Number of instructions handled by decode
system.cpu.decode.squashedInsts                  1082                       # Number of squashed instructions handled by decode
system.cpu.dtb.rdAccesses                       36698                       # TLB accesses on read requests
system.cpu.dtb.wrAccesses                       18513                       # TLB accesses on write requests
system.cpu.dtb.rdMisses                            88                       # TLB misses on read requests
system.cpu.dtb.wrMisses                            16                       # TLB misses on write requests
system.cpu.dtb.walker.power_state.pwrStateResidencyTicks::UNDEFINED   1019607000                       # Cumulative time (in ticks) in various power states
system.cpu.fetch.icacheStallCycles              50043                       # Number of cycles fetch is stalled on an Icache miss
system.cpu.fetch.insts                         130490                       # Number of instructions fetch has processed
system.cpu.fetch.branches                       19983                       # Number of branches that fetch encountered
system.cpu.fetch.predictedBranches              17685                       # Number of branches that fetch has predicted taken
system.cpu.fetch.cycles                        929196                       # Number of cycles fetch has run and was not squashing or blocked
system.cpu.fetch.squashCycles                    1478                       # Number of cycles fetch has spent squashing
system.cpu.fetch.miscStallCycles                   68                       # Number of cycles fetch has spent waiting on interrupts,or bad addresses, or out of MSHRs
system.cpu.fetch.pendingTrapStallCycles           335                       # Number of stall cycles due to pending traps
system.cpu.fetch.pendingQuiesceStallCycles            1                       # Number of stall cycles due to pending quiesce instructions
system.cpu.fetch.cacheLines                      1901                       # Number of cache lines fetched
system.cpu.fetch.icacheSquashes                   517                       # Number of outstanding Icache misses that were squashed
system.cpu.fetch.nisnDist::samples             980382                       # Number of instructions fetched each cycle (Total)
system.cpu.fetch.nisnDist::mean              0.265772                       # Number of instructions fetched each cycle (Total)
system.cpu.fetch.nisnDist::stdev             1.302527                       # Number of instructions fetched each cycle (Total)
system.cpu.fetch.nisnDist::underflows               0      0.00%      0.00% # Number of instructions fetched each cycle (Total)
system.cpu.fetch.nisnDist::0                   934628     95.33%     95.33% # Number of instructions fetched each cycle (Total)
system.cpu.fetch.nisnDist::1                      162      0.02%     95.35% # Number of instructions fetched each cycle (Total)
system.cpu.fetch.nisnDist::2                     8389      0.86%     96.21% # Number of instructions fetched each cycle (Total)
system.cpu.fetch.nisnDist::3                      206      0.02%     96.23% # Number of instructions fetched each cycle (Total)
system.cpu.fetch.nisnDist::4                     8803      0.90%     97.12% # Number of instructions fetched each cycle (Total)
system.cpu.fetch.nisnDist::5                      223      0.02%     97.15% # Number of instructions fetched each cycle (Total)
system.cpu.fetch.nisnDist::6                     8413      0.86%     98.01% # Number of instructions fetched each cycle (Total)
system.cpu.fetch.nisnDist::7                      269      0.03%     98.03% # Number of instructions fetched each cycle (Total)
system.cpu.fetch.nisnDist::8                    19289      1.97%    100.00% # Number of instructions fetched each cycle (Total)
system.cpu.fetch.nisnDist::overflows                0      0.00%    100.00% # Number of instructions fetched each cycle (Total)
system.cpu.fetch.nisnDist::min_value                0                       # Number of instructions fetched each cycle (Total)
system.cpu.fetch.nisnDist::max_value                8                       # Number of instructions fetched each cycle (Total)
system.cpu.fetch.nisnDist::total               980382                       # Number of instructions fetched each cycle (Total)
system.cpu.fetch.branchRate                  0.019599                       # Number of branch fetches per cycle
system.cpu.fetch.rate                        0.127981                       # Number of inst fetches per cycle
system.cpu.interrupts.clk_domain.clock          16000                       # Clock period in ticks
system.cpu.itb.rdAccesses                           0                       # TLB accesses on read requests
system.cpu.itb.wrAccesses                        1962                       # TLB accesses on write requests
system.cpu.itb.rdMisses                             0                       # TLB misses on read requests
system.cpu.itb.wrMisses                           103                       # TLB misses on write requests
system.cpu.itb.walker.power_state.pwrStateResidencyTicks::UNDEFINED   1019607000                       # Cumulative time (in ticks) in various power states
system.cpu.lsq0.forwLoads                          55                       # Number of loads that had data forwarded from stores
system.cpu.lsq0.squashedLoads                    1503                       # Number of loads squashed
system.cpu.lsq0.ignoredResponses                    1                       # Number of memory responses ignored because the instruction is squashed
system.cpu.lsq0.memOrderViolation                  19                       # Number of memory ordering violations
system.cpu.lsq0.squashedStores                    862                       # Number of stores squashed
system.cpu.lsq0.rescheduledLoads                    1                       # Number of loads that were rescheduled
system.cpu.lsq0.blockedByCache                   2049                       # Number of times an access to memory failed due to the cache being blocked
system.cpu.power_state.pwrStateResidencyTicks::ON   1019607000                       # Cumulative time (in ticks) in various power states
system.cpu.rename.squashCycles                    527                       # Number of cycles rename is squashing
system.cpu.rename.idleCycles                    64472                       # Number of cycles rename is idle
system.cpu.rename.blockCycles                  826468                       # Number of cycles rename is blocking
system.cpu.rename.serializeStallCycles            132                       # count of cycles rename stalledfor serializing inst
system.cpu.rename.runCycles                     28644                       # Number of cycles rename is running
system.cpu.rename.unblockCycles                 60139                       # Number of cycles rename is unblocking
system.cpu.rename.renamedInsts                 257286                       # Number of instructions processed by rename
system.cpu.rename.ROBFullEvents                 49100                       # Number of times rename has blocked due to ROB full
system.cpu.rename.IQFullEvents                   2277                       # Number of times rename has blocked due to IQ full
system.cpu.rename.SQFullEvents                   4524                       # Number of times rename has blocked due to SQ full
system.cpu.rename.renamedOperands              292938                       # Number of destination operands rename has renamed
system.cpu.rename.lookups                      542483                       # Number of register rename lookups that rename has made
system.cpu.rename.intLookups                   235007                       # Number of integer rename lookups
system.cpu.rename.fpLookups                    116277                       # Number of floating rename lookups
system.cpu.rename.committedMaps                280105                       # Number of HB maps that are committed
system.cpu.rename.undoneMaps                    12827                       # Number of HB maps that are undone due to squashing
system.cpu.rename.serializing                       5                       # count of serializing insts renamed
system.cpu.rename.tempSerializing                   5                       # count of temporary serializing insts renamed
system.cpu.rename.skidInsts                    119041                       # count of insts added to the skid buffer
system.cpu.rob.reads                          1218578                       # The number of ROB reads
system.cpu.rob.writes                          515778                       # The number of ROB writes
system.cpu.thread_0.numInsts                   123018                       # Number of Instructions committed
system.cpu.thread_0.numOps                     245559                       # Number of Ops committed
system.cpu.thread_0.numMemRefs                      0                       # Number of Memory References
system.mem_ctrl.avgPriority_.cpu.inst::samples      1901.00                       # Average QoS priority value for accepted requests
system.mem_ctrl.avgPriority_.cpu.data::samples     37505.00                       # Average QoS priority value for accepted requests
system.mem_ctrl.priorityMinLatency       0.000000018750                       # per QoS priority minimum request to response latency (s)
system.mem_ctrl.priorityMaxLatency       0.000109142250                       # per QoS priority maximum request to response latency (s)
system.mem_ctrl.numReadWriteTurnArounds            75                       # Number of turnarounds from READ to WRITE
system.mem_ctrl.numWriteReadTurnArounds            75                       # Number of turnarounds from WRITE to READ
system.mem_ctrl.numStayReadState                93053                       # Number of times bus staying in READ state
system.mem_ctrl.numStayWriteState                1127                       # Number of times bus staying in WRITE state
system.mem_ctrl.readReqs                        38408                       # Number of read requests accepted
system.mem_ctrl.writeReqs                       18011                       # Number of write requests accepted
system.mem_ctrl.readBursts                      38408                       # Number of controller read bursts, including those serviced by the write queue
system.mem_ctrl.writeBursts                     18011                       # Number of controller write bursts, including those merged in the write queue
system.mem_ctrl.servicedByWrQ                     229                       # Number of controller read bursts serviced by the write queue
system.mem_ctrl.mergedWrBursts                  16784                       # Number of controller write bursts merged with an existing one
system.mem_ctrl.neitherReadNorWriteReqs             0                       # Number of requests that are neither read nor write
system.mem_ctrl.avgRdQLen                        2.14                       # Average read queue length when enqueuing
system.mem_ctrl.avgWrQLen                       25.34                       # Average write queue length when enqueuing
system.mem_ctrl.numRdRetry                          0                       # Number of times read queue was full causing retry
system.mem_ctrl.numWrRetry                          0                       # Number of times write queue was full causing retry
system.mem_ctrl.readPktSize::0                    292                       # Read request sizes (log2)
system.mem_ctrl.readPktSize::1                     26                       # Read request sizes (log2)
system.mem_ctrl.readPktSize::2                  18980                       # Read request sizes (log2)
system.mem_ctrl.readPktSize::3                  17209                       # Read request sizes (log2)
system.mem_ctrl.readPktSize::4                      0                       # Read request sizes (log2)
system.mem_ctrl.readPktSize::5                      0                       # Read request sizes (log2)
system.mem_ctrl.readPktSize::6                   1901                       # Read request sizes (log2)
system.mem_ctrl.writePktSize::0                    29                       # Write request sizes (log2)
system.mem_ctrl.writePktSize::1                     7                       # Write request sizes (log2)
system.mem_ctrl.writePktSize::2                 16512                       # Write request sizes (log2)
system.mem_ctrl.writePktSize::3                  1463                       # Write request sizes (log2)
system.mem_ctrl.writePktSize::4                     0                       # Write request sizes (log2)
system.mem_ctrl.writePktSize::5                     0                       # Write request sizes (log2)
system.mem_ctrl.writePktSize::6                     0                       # Write request sizes (log2)
system.mem_ctrl.rdQLenPdf::0                    17526                       # What read queue length does an incoming req see
system.mem_ctrl.rdQLenPdf::1                    17493                       # What read queue length does an incoming req see
system.mem_ctrl.rdQLenPdf::2                     1742                       # What read queue length does an incoming req see
system.mem_ctrl.rdQLenPdf::3                      453                       # What read queue length does an incoming req see
system.mem_ctrl.rdQLenPdf::4                      197                       # What read queue length does an incoming req see
system.mem_ctrl.rdQLenPdf::5                      124                       # What read queue length does an incoming req see
system.mem_ctrl.rdQLenPdf::6                       92                       # What read queue length does an incoming req see
system.mem_ctrl.rdQLenPdf::7                       59                       # What read queue length does an incoming req see
system.mem_ctrl.rdQLenPdf::8                       41                       # What read queue length does an incoming req see
system.mem_ctrl.rdQLenPdf::9                       34                       # What read queue length does an incoming req see
system.mem_ctrl.rdQLenPdf::10                      29                       # What read queue length does an incoming req see
system.mem_ctrl.rdQLenPdf::11                      25                       # What read queue length does an incoming req see
system.mem_ctrl.rdQLenPdf::12                      23                       # What read queue length does an incoming req see
system.mem_ctrl.rdQLenPdf::13                      24                       # What read queue length does an incoming req see
system.mem_ctrl.rdQLenPdf::14                      22                       # What read queue length does an incoming req see
system.mem_ctrl.rdQLenPdf::15                      22                       # What read queue length does an incoming req see
system.mem_ctrl.rdQLenPdf::16                      24                       # What read queue length does an incoming req see
system.mem_ctrl.rdQLenPdf::17                      21                       # What read queue length does an incoming req see
system.mem_ctrl.rdQLenPdf::18                      21                       # What read queue length does an incoming req see
system.mem_ctrl.rdQLenPdf::19                      27                       # What read queue length does an incoming req see
system.mem_ctrl.rdQLenPdf::20                      48                       # What read queue length does an incoming req see
system.mem_ctrl.rdQLenPdf::21                      42                       # What read queue length does an incoming req see
system.mem_ctrl.rdQLenPdf::22                      17                       # What read queue length does an incoming req see
system.mem_ctrl.rdQLenPdf::23                      17                       # What read queue length does an incoming req see
system.mem_ctrl.rdQLenPdf::24                      15                       # What read queue length does an incoming req see
system.mem_ctrl.rdQLenPdf::25                      26                       # What read queue length does an incoming req see
system.mem_ctrl.rdQLenPdf::26                      15                       # What read queue length does an incoming req see
system.mem_ctrl.rdQLenPdf::27                       0                       # What read queue length does an incoming req see
system.mem_ctrl.rdQLenPdf::28                       0                       # What read queue length does an incoming req see
system.mem_ctrl.rdQLenPdf::29                       0                       # What read queue length does an incoming req see
system.mem_ctrl.rdQLenPdf::30                       0                       # What read queue length does an incoming req see
system.mem_ctrl.rdQLenPdf::31                       0                       # What read queue length does an incoming req see
system.mem_ctrl.wrQLenPdf::0                        1                       # What write queue length does an incoming req see
system.mem_ctrl.wrQLenPdf::1                        1                       # What write queue length does an incoming req see
system.mem_ctrl.wrQLenPdf::2                        1                       # What write queue length does an incoming req see
system.mem_ctrl.wrQLenPdf::3                        1                       # What write queue length does an incoming req see
system.mem_ctrl.wrQLenPdf::4                        1                       # What write queue length does an incoming req see
system.mem_ctrl.wrQLenPdf::5                        1                       # What write queue length does an incoming req see
system.mem_ctrl.wrQLenPdf::6                        1                       # What write queue length does an incoming req see
system.mem_ctrl.wrQLenPdf::7                        1                       # What write queue length does an incoming req see
system.mem_ctrl.wrQLenPdf::8                        1                       # What write queue length does an incoming req see
system.mem_ctrl.wrQLenPdf::9                        1                       # What write queue length does an incoming req see
system.mem_ctrl.wrQLenPdf::10                       1                       # What write queue length does an incoming req see
system.mem_ctrl.wrQLenPdf::11                       1                       # What write queue length does an incoming req see
system.mem_ctrl.wrQLenPdf::12                       1                       # What write queue length does an incoming req see
system.mem_ctrl.wrQLenPdf::13                       1                       # What write queue length does an incoming req see
system.mem_ctrl.wrQLenPdf::14                       1                       # What write queue length does an incoming req see
system.mem_ctrl.wrQLenPdf::15                       2                       # What write queue length does an incoming req see
system.mem_ctrl.wrQLenPdf::16                       2                       # What write queue length does an incoming req see
system.mem_ctrl.wrQLenPdf::17                      74                       # What write queue length does an incoming req see
system.mem_ctrl.wrQLenPdf::18                      77                       # What write queue length does an incoming req see
system.mem_ctrl.wrQLenPdf::19                      76                       # What write queue length does an incoming req see
system.mem_ctrl.wrQLenPdf::20                      76                       # What write queue length does an incoming req see
system.mem_ctrl.wrQLenPdf::21                      77                       # What write queue length does an incoming req see
system.mem_ctrl.wrQLenPdf::22                      76                       # What write queue length does an incoming req see
system.mem_ctrl.wrQLenPdf::23                      76                       # What write queue length does an incoming req see
system.mem_ctrl.wrQLenPdf::24                      76                       # What write queue length does an incoming req see
system.mem_ctrl.wrQLenPdf::25                      75                       # What write queue length does an incoming req see
system.mem_ctrl.wrQLenPdf::26                      75                       # What write queue length does an incoming req see
system.mem_ctrl.wrQLenPdf::27                      75                       # What write queue length does an incoming req see
system.mem_ctrl.wrQLenPdf::28                      75                       # What write queue length does an incoming req see
system.mem_ctrl.wrQLenPdf::29                      75                       # What write queue length does an incoming req see
system.mem_ctrl.wrQLenPdf::30                      75                       # What write queue length does an incoming req see
system.mem_ctrl.wrQLenPdf::31                      75                       # What write queue length does an incoming req see
system.mem_ctrl.wrQLenPdf::32                      75                       # What write queue length does an incoming req see
system.mem_ctrl.wrQLenPdf::33                       0                       # What write queue length does an incoming req see
system.mem_ctrl.wrQLenPdf::34                       0                       # What write queue length does an incoming req see
system.mem_ctrl.wrQLenPdf::35                       0                       # What write queue length does an incoming req see
system.mem_ctrl.wrQLenPdf::36                       0                       # What write queue length does an incoming req see
system.mem_ctrl.wrQLenPdf::37                       0                       # What write queue length does an incoming req see
system.mem_ctrl.wrQLenPdf::38                       0                       # What write queue length does an incoming req see
system.mem_ctrl.wrQLenPdf::39                       0                       # What write queue length does an incoming req see
system.mem_ctrl.wrQLenPdf::40                       0                       # What write queue length does an incoming req see
system.mem_ctrl.wrQLenPdf::41                       0                       # What write queue length does an incoming req see
system.mem_ctrl.wrQLenPdf::42                       0                       # What write queue length does an incoming req see
system.mem_ctrl.wrQLenPdf::43                       0                       # What write queue length does an incoming req see
system.mem_ctrl.wrQLenPdf::44                       0                       # What write queue length does an incoming req see
system.mem_ctrl.wrQLenPdf::45                       0                       # What write queue length does an incoming req see
system.mem_ctrl.wrQLenPdf::46                       0                       # What write queue length does an incoming req see
system.mem_ctrl.wrQLenPdf::47                       0                       # What write queue length does an incoming req see
system.mem_ctrl.wrQLenPdf::48                       0                       # What write queue length does an incoming req see
system.mem_ctrl.wrQLenPdf::49                       0                       # What write queue length does an incoming req see
system.mem_ctrl.wrQLenPdf::50                       0                       # What write queue length does an incoming req see
system.mem_ctrl.wrQLenPdf::51                       0                       # What write queue length does an incoming req see
system.mem_ctrl.wrQLenPdf::52                       0                       # What write queue length does an incoming req see
system.mem_ctrl.wrQLenPdf::53                       0                       # What write queue length does an incoming req see
system.mem_ctrl.wrQLenPdf::54                       0                       # What write queue length does an incoming req see
system.mem_ctrl.wrQLenPdf::55                       0                       # What write queue length does an incoming req see
system.mem_ctrl.wrQLenPdf::56                       0                       # What write queue length does an incoming req see
system.mem_ctrl.wrQLenPdf::57                       0                       # What write queue length does an incoming req see
system.mem_ctrl.wrQLenPdf::58                       0                       # What write queue length does an incoming req see
system.mem_ctrl.wrQLenPdf::59                       0                       # What write queue length does an incoming req see
system.mem_ctrl.wrQLenPdf::60                       0                       # What write queue length does an incoming req see
system.mem_ctrl.wrQLenPdf::61                       0                       # What write queue length does an incoming req see
system.mem_ctrl.wrQLenPdf::62                       0                       # What write queue length does an incoming req see
system.mem_ctrl.wrQLenPdf::63                       0                       # What write queue length does an incoming req see
system.mem_ctrl.rdPerTurnAround::samples           75                       # Reads before turning the bus around for writes
system.mem_ctrl.rdPerTurnAround::mean      506.946667                       # Reads before turning the bus around for writes
system.mem_ctrl.rdPerTurnAround::gmean     452.201291                       # Reads before turning the bus around for writes
system.mem_ctrl.rdPerTurnAround::stdev     152.099887                       # Reads before turning the bus around for writes
system.mem_ctrl.rdPerTurnAround::0-63               2      2.67%      2.67% # Reads before turning the bus around for writes
system.mem_ctrl.rdPerTurnAround::128-191            1      1.33%      4.00% # Reads before turning the bus around for writes
system.mem_ctrl.rdPerTurnAround::192-255            3      4.00%      8.00% # Reads before turning the bus around for writes
system.mem_ctrl.rdPerTurnAround::384-447            1      1.33%      9.33% # Reads before turning the bus around for writes
system.mem_ctrl.rdPerTurnAround::448-511            6      8.00%     17.33% # Reads before turning the bus around for writes
system.mem_ctrl.rdPerTurnAround::512-575           60     80.00%     97.33% # Reads before turning the bus around for writes
system.mem_ctrl.rdPerTurnAround::640-703            1      1.33%     98.67% # Reads before turning the bus around for writes
system.mem_ctrl.rdPerTurnAround::1408-1471            1      1.33%    100.00% # Reads before turning the bus around for writes
system.mem_ctrl.rdPerTurnAround::total             75                       # Reads before turning the bus around for writes
system.mem_ctrl.wrPerTurnAround::samples           75                       # Writes before turning the bus around for reads
system.mem_ctrl.wrPerTurnAround::mean       16.026667                       # Writes before turning the bus around for reads
system.mem_ctrl.wrPerTurnAround::gmean      16.025147                       # Writes before turning the bus around for reads
system.mem_ctrl.wrPerTurnAround::stdev       0.230940                       # Writes before turning the bus around for reads
system.mem_ctrl.wrPerTurnAround::16                74     98.67%     98.67% # Writes before turning the bus around for reads
system.mem_ctrl.wrPerTurnAround::18                 1      1.33%    100.00% # Writes before turning the bus around for reads
system.mem_ctrl.wrPerTurnAround::total             75                       # Writes before turning the bus around for reads
system.mem_ctrl.bytesReadWrQ                    14656                       # Total number of bytes read from write queue
system.mem_ctrl.bytesReadSys                   335600                       # Total read bytes from the system interface side
system.mem_ctrl.bytesWrittenSys                 77794                       # Total written bytes from the system interface side
system.mem_ctrl.avgRdBWSys                     329.15                       # Average system read bandwidth in MiByte/s
system.mem_ctrl.avgWrBWSys                      76.30                       # Average system write bandwidth in MiByte/s
system.mem_ctrl.totGap                     1019600000                       # Total gap between requests
system.mem_ctrl.avgGap                       18071.93                       # Average gap between requests
system.mem_ctrl.requestorReadBytes::.cpu.inst       121664                       # Per-requestor bytes read from memory
system.mem_ctrl.requestorReadBytes::.cpu.data       212228                       # Per-requestor bytes read from memory
system.mem_ctrl.requestorWriteBytes::.cpu.data         5458                       # Per-requestor bytes write to memory
system.mem_ctrl.requestorReadRate::.cpu.inst 119324406.364412948489                       # Per-requestor bytes read from memory rate (Bytes/sec)
system.mem_ctrl.requestorReadRate::.cpu.data 208146864.429137885571                       # Per-requestor bytes read from memory rate (Bytes/sec)
system.mem_ctrl.requestorWriteRate::.cpu.data 5353042.888093156740                       # Per-requestor bytes write to memory rate (Bytes/sec)
system.mem_ctrl.requestorReadAccesses::.cpu.inst         1901                       # Per-requestor read serviced memory accesses
system.mem_ctrl.requestorReadAccesses::.cpu.data        36507                       # Per-requestor read serviced memory accesses
system.mem_ctrl.requestorWriteAccesses::.cpu.data        18011                       # Per-requestor write serviced memory accesses
system.mem_ctrl.requestorReadTotalLat::.cpu.inst     57305500                       # Per-requestor read total memory access latency
system.mem_ctrl.requestorReadTotalLat::.cpu.data    922041250                       # Per-requestor read total memory access latency
system.mem_ctrl.requestorWriteTotalLat::.cpu.data  24713508250                       # Per-requestor write total memory access latency
system.mem_ctrl.requestorReadAvgLat::.cpu.inst     30144.92                       # Per-requestor read average memory access latency
system.mem_ctrl.requestorReadAvgLat::.cpu.data     25256.56                       # Per-requestor read average memory access latency
system.mem_ctrl.requestorWriteAvgLat::.cpu.data   1372134.15                       # Per-requestor write average memory access latency
system.mem_ctrl.dram.bytes_read::.cpu.inst       121536                       # Number of bytes read from this memory
system.mem_ctrl.dram.bytes_read::.cpu.data       213936                       # Number of bytes read from this memory
system.mem_ctrl.dram.bytes_read::total         335472                       # Number of bytes read from this memory
system.mem_ctrl.dram.bytes_inst_read::.cpu.inst       121536                       # Number of instructions bytes read from this memory
system.mem_ctrl.dram.bytes_inst_read::total       121536                       # Number of instructions bytes read from this memory
system.mem_ctrl.dram.bytes_written::.cpu.data        77794                       # Number of bytes written to this memory
system.mem_ctrl.dram.bytes_written::total        77794                       # Number of bytes written to this memory
system.mem_ctrl.dram.num_reads::.cpu.inst         1899                       # Number of read requests responded to by this memory
system.mem_ctrl.dram.num_reads::.cpu.data        36507                       # Number of read requests responded to by this memory
system.mem_ctrl.dram.num_reads::total           38406                       # Number of read requests responded to by this memory
system.mem_ctrl.dram.num_writes::.cpu.data        18011                       # Number of write requests responded to by this memory
system.mem_ctrl.dram.num_writes::total          18011                       # Number of write requests responded to by this memory
system.mem_ctrl.dram.bw_read::.cpu.inst     119198868                       # Total read bandwidth from this memory (bytes/s)
system.mem_ctrl.dram.bw_read::.cpu.data     209822020                       # Total read bandwidth from this memory (bytes/s)
system.mem_ctrl.dram.bw_read::total         329020887                       # Total read bandwidth from this memory (bytes/s)
system.mem_ctrl.dram.bw_inst_read::.cpu.inst    119198868                       # Instruction read bandwidth from this memory (bytes/s)
system.mem_ctrl.dram.bw_inst_read::total    119198868                       # Instruction read bandwidth from this memory (bytes/s)
system.mem_ctrl.dram.bw_write::.cpu.data     76298025                       # Write bandwidth from this memory (bytes/s)
system.mem_ctrl.dram.bw_write::total         76298025                       # Write bandwidth from this memory (bytes/s)
system.mem_ctrl.dram.bw_total::.cpu.inst    119198868                       # Total bandwidth to/from this memory (bytes/s)
system.mem_ctrl.dram.bw_total::.cpu.data    286120044                       # Total bandwidth to/from this memory (bytes/s)
system.mem_ctrl.dram.bw_total::total        405318912                       # Total bandwidth to/from this memory (bytes/s)
system.mem_ctrl.dram.readBursts                 38179                       # Number of DRAM read bursts
system.mem_ctrl.dram.writeBursts                 1202                       # Number of DRAM write bursts
system.mem_ctrl.dram.perBankRdBursts::0          1009                       # Per bank write bursts
system.mem_ctrl.dram.perBankRdBursts::1          4189                       # Per bank write bursts
system.mem_ctrl.dram.perBankRdBursts::2          4393                       # Per bank write bursts
system.mem_ctrl.dram.perBankRdBursts::3          4418                       # Per bank write bursts
system.mem_ctrl.dram.perBankRdBursts::4          4382                       # Per bank write bursts
system.mem_ctrl.dram.perBankRdBursts::5          4172                       # Per bank write bursts
system.mem_ctrl.dram.perBankRdBursts::6          4457                       # Per bank write bursts
system.mem_ctrl.dram.perBankRdBursts::7          4251                       # Per bank write bursts
system.mem_ctrl.dram.perBankRdBursts::8          4135                       # Per bank write bursts
system.mem_ctrl.dram.perBankRdBursts::9          1180                       # Per bank write bursts
system.mem_ctrl.dram.perBankRdBursts::10          147                       # Per bank write bursts
system.mem_ctrl.dram.perBankRdBursts::11          370                       # Per bank write bursts
system.mem_ctrl.dram.perBankRdBursts::12          402                       # Per bank write bursts
system.mem_ctrl.dram.perBankRdBursts::13           36                       # Per bank write bursts
system.mem_ctrl.dram.perBankRdBursts::14          256                       # Per bank write bursts
system.mem_ctrl.dram.perBankRdBursts::15          382                       # Per bank write bursts
system.mem_ctrl.dram.perBankWrBursts::0            26                       # Per bank write bursts
system.mem_ctrl.dram.perBankWrBursts::1             2                       # Per bank write bursts
system.mem_ctrl.dram.perBankWrBursts::2             0                       # Per bank write bursts
system.mem_ctrl.dram.perBankWrBursts::3             0                       # Per bank write bursts
system.mem_ctrl.dram.perBankWrBursts::4             0                       # Per bank write bursts
system.mem_ctrl.dram.perBankWrBursts::5           232                       # Per bank write bursts
system.mem_ctrl.dram.perBankWrBursts::6           258                       # Per bank write bursts
system.mem_ctrl.dram.perBankWrBursts::7           258                       # Per bank write bursts
system.mem_ctrl.dram.perBankWrBursts::8           248                       # Per bank write bursts
system.mem_ctrl.dram.perBankWrBursts::9            68                       # Per bank write bursts
system.mem_ctrl.dram.perBankWrBursts::10            7                       # Per bank write bursts
system.mem_ctrl.dram.perBankWrBursts::11           53                       # Per bank write bursts
system.mem_ctrl.dram.perBankWrBursts::12            0                       # Per bank write bursts
system.mem_ctrl.dram.perBankWrBursts::13            0                       # Per bank write bursts
system.mem_ctrl.dram.perBankWrBursts::14            0                       # Per bank write bursts
system.mem_ctrl.dram.perBankWrBursts::15           50                       # Per bank write bursts
system.mem_ctrl.dram.totQLat                263490500                       # Total ticks spent queuing
system.mem_ctrl.dram.totBusLat              190895000                       # Total ticks spent in databus transfers
system.mem_ctrl.dram.totMemAccLat           979346750                       # Total ticks spent from burst creation until serviced by the DRAM
system.mem_ctrl.dram.avgQLat                  6901.45                       # Average queueing delay per DRAM burst
system.mem_ctrl.dram.avgBusLat                5000.00                       # Average bus latency per DRAM burst
system.mem_ctrl.dram.avgMemAccLat            25651.45                       # Average memory access latency per DRAM burst
system.mem_ctrl.dram.readRowHits                35220                       # Number of row buffer hits during reads
system.mem_ctrl.dram.writeRowHits                1121                       # Number of row buffer hits during writes
system.mem_ctrl.dram.readRowHitRate             92.25                       # Row buffer hit rate for reads
system.mem_ctrl.dram.writeRowHitRate            93.26                       # Row buffer hit rate for writes
system.mem_ctrl.dram.bytesPerActivate::samples         3028                       # Bytes accessed per row activation
system.mem_ctrl.dram.bytesPerActivate::mean   830.689564                       # Bytes accessed per row activation
system.mem_ctrl.dram.bytesPerActivate::gmean   665.720078                       # Bytes accessed per row activation
system.mem_ctrl.dram.bytesPerActivate::stdev   345.896288                       # Bytes accessed per row activation
system.mem_ctrl.dram.bytesPerActivate::0-127          217      7.17%      7.17% # Bytes accessed per row activation
system.mem_ctrl.dram.bytesPerActivate::128-255          223      7.36%     14.53% # Bytes accessed per row activation
system.mem_ctrl.dram.bytesPerActivate::256-383          120      3.96%     18.49% # Bytes accessed per row activation
system.mem_ctrl.dram.bytesPerActivate::384-511           49      1.62%     20.11% # Bytes accessed per row activation
system.mem_ctrl.dram.bytesPerActivate::512-639           39      1.29%     21.40% # Bytes accessed per row activation
system.mem_ctrl.dram.bytesPerActivate::640-767           68      2.25%     23.65% # Bytes accessed per row activation
system.mem_ctrl.dram.bytesPerActivate::768-895           74      2.44%     26.09% # Bytes accessed per row activation
system.mem_ctrl.dram.bytesPerActivate::896-1023           29      0.96%     27.05% # Bytes accessed per row activation
system.mem_ctrl.dram.bytesPerActivate::1024-1151         2209     72.95%    100.00% # Bytes accessed per row activation
system.mem_ctrl.dram.bytesPerActivate::total         3028                       # Bytes accessed per row activation
system.mem_ctrl.dram.bytesRead                2443456                       # Total number of bytes read from DRAM
system.mem_ctrl.dram.bytesWritten               76928                       # Total number of bytes written to DRAM
system.mem_ctrl.dram.avgRdBW              2396.468443                       # Average DRAM read bandwidth in MiBytes/s
system.mem_ctrl.dram.avgWrBW                75.448678                       # Average DRAM write bandwidth in MiBytes/s
system.mem_ctrl.dram.peakBW                  12800.00                       # Theoretical peak bandwidth in MiByte/s
system.mem_ctrl.dram.busUtil                    19.31                       # Data bus utilization in percentage
system.mem_ctrl.dram.busUtilRead                18.72                       # Data bus utilization in percentage for reads
system.mem_ctrl.dram.busUtilWrite                0.59                       # Data bus utilization in percentage for writes
system.mem_ctrl.dram.pageHitRate                92.28                       # Row buffer hit rate, read and write combined
system.mem_ctrl.dram.power_state.pwrStateResidencyTicks::UNDEFINED   1019607000                       # Cumulative time (in ticks) in various power states
system.mem_ctrl.dram.rank0.actEnergy         16757580                       # Energy for activate commands per rank (pJ)
system.mem_ctrl.dram.rank0.preEnergy          8884095                       # Energy for precharge commands per rank (pJ)
system.mem_ctrl.dram.rank0.readEnergy       223274940                       # Energy for read commands per rank (pJ)
system.mem_ctrl.dram.rank0.writeEnergy        4050720                       # Energy for write commands per rank (pJ)
system.mem_ctrl.dram.rank0.refreshEnergy 79903200.000000                       # Energy for refresh commands per rank (pJ)
system.mem_ctrl.dram.rank0.actBackEnergy    456567150                       # Energy for active background per rank (pJ)
system.mem_ctrl.dram.rank0.preBackEnergy      7051680                       # Energy for precharge background per rank (pJ)
system.mem_ctrl.dram.rank0.actPowerDownEnergy            0                       # Energy for active power-down per rank (pJ)
system.mem_ctrl.dram.rank0.prePowerDownEnergy            0                       # Energy for precharge power-down per rank (pJ)
system.mem_ctrl.dram.rank0.selfRefreshEnergy            0                       # Energy for self refresh per rank (pJ)
system.mem_ctrl.dram.rank0.totalEnergy      796489365                       # Total energy per rank (pJ)
system.mem_ctrl.dram.rank0.averagePower    781.172908                       # Core power per rank (mW)
system.mem_ctrl.dram.rank0.totalIdleTime            0                       # Total Idle time Per DRAM Rank
system.mem_ctrl.dram.rank0.pwrStateTime::IDLE     11241000                       # Time in different power states
system.mem_ctrl.dram.rank0.pwrStateTime::REF     33800000                       # Time in different power states
system.mem_ctrl.dram.rank0.pwrStateTime::SREF            0                       # Time in different power states
system.mem_ctrl.dram.rank0.pwrStateTime::PRE_PDN            0                       # Time in different power states
system.mem_ctrl.dram.rank0.pwrStateTime::ACT    974566000                       # Time in different power states
system.mem_ctrl.dram.rank0.pwrStateTime::ACT_PDN            0                       # Time in different power states
system.mem_ctrl.dram.rank1.actEnergy          4948020                       # Energy for activate commands per rank (pJ)
system.mem_ctrl.dram.rank1.preEnergy          2607165                       # Energy for precharge commands per rank (pJ)
system.mem_ctrl.dram.rank1.readEnergy        49323120                       # Energy for read commands per rank (pJ)
system.mem_ctrl.dram.rank1.writeEnergy        2223720                       # Energy for write commands per rank (pJ)
system.mem_ctrl.dram.rank1.refreshEnergy 79903200.000000                       # Energy for refresh commands per rank (pJ)
system.mem_ctrl.dram.rank1.actBackEnergy    175174110                       # Energy for active background per rank (pJ)
system.mem_ctrl.dram.rank1.preBackEnergy    244014240                       # Energy for precharge background per rank (pJ)
system.mem_ctrl.dram.rank1.actPowerDownEnergy            0                       # Energy for active power-down per rank (pJ)
system.mem_ctrl.dram.rank1.prePowerDownEnergy            0                       # Energy for precharge power-down per rank (pJ)
system.mem_ctrl.dram.rank1.selfRefreshEnergy            0                       # Energy for self refresh per rank (pJ)
system.mem_ctrl.dram.rank1.totalEnergy      558193575                       # Total energy per rank (pJ)
system.mem_ctrl.dram.rank1.averagePower    547.459536                       # Core power per rank (mW)
system.mem_ctrl.dram.rank1.totalIdleTime            0                       # Total Idle time Per DRAM Rank
system.mem_ctrl.dram.rank1.pwrStateTime::IDLE    629381000                       # Time in different power states
system.mem_ctrl.dram.rank1.pwrStateTime::REF     33800000                       # Time in different power states
system.mem_ctrl.dram.rank1.pwrStateTime::SREF            0                       # Time in different power states
system.mem_ctrl.dram.rank1.pwrStateTime::PRE_PDN            0                       # Time in different power states
system.mem_ctrl.dram.rank1.pwrStateTime::ACT    356426000                       # Time in different power states
system.mem_ctrl.dram.rank1.pwrStateTime::ACT_PDN            0                       # Time in different power states
system.mem_ctrl.power_state.pwrStateResidencyTicks::UNDEFINED   1019607000                       # Cumulative time (in ticks) in various power states
system.membus.trans_dist::ReadReq               38408                       # Transaction distribution
system.membus.trans_dist::ReadResp              38406                       # Transaction distribution
system.membus.trans_dist::WriteReq              18011                       # Transaction distribution
system.membus.trans_dist::WriteResp             18011                       # Transaction distribution
system.membus.pkt_count_system.cpu.icache_port::system.mem_ctrl.port         3800                       # Packet count per connected requestor and responder (bytes)
system.membus.pkt_count_system.cpu.icache_port::total         3800                       # Packet count per connected requestor and responder (bytes)
system.membus.pkt_count_system.cpu.dcache_port::system.mem_ctrl.port       109036                       # Packet count per connected requestor and responder (bytes)
system.membus.pkt_count_system.cpu.dcache_port::total       109036                       # Packet count per connected requestor and responder (bytes)
system.membus.pkt_count::total                 112836                       # Packet count per connected requestor and responder (bytes)
system.membus.pkt_size_system.cpu.icache_port::system.mem_ctrl.port       121536                       # Cumulative packet size per connected requestor and responder (bytes)
system.membus.pkt_size_system.cpu.icache_port::total       121536                       # Cumulative packet size per connected requestor and responder (bytes)
system.membus.pkt_size_system.cpu.dcache_port::system.mem_ctrl.port       291730                       # Cumulative packet size per connected requestor and responder (bytes)
system.membus.pkt_size_system.cpu.dcache_port::total       291730                       # Cumulative packet size per connected requestor and responder (bytes)
system.membus.pkt_size::total                  413266                       # Cumulative packet size per connected requestor and responder (bytes)
system.membus.snoops                                0                       # Total snoops (count)
system.membus.snoopTraffic                          0                       # Total snoop traffic (bytes)
system.membus.snoop_fanout::samples             56419                       # Request fanout histogram
system.membus.snoop_fanout::mean                    0                       # Request fanout histogram
system.membus.snoop_fanout::stdev                   0                       # Request fanout histogram
system.membus.snoop_fanout::underflows              0      0.00%      0.00% # Request fanout histogram
system.membus.snoop_fanout::0                   56419    100.00%    100.00% # Request fanout histogram
system.membus.snoop_fanout::1                       0      0.00%    100.00% # Request fanout histogram
system.membus.snoop_fanout::overflows               0      0.00%    100.00% # Request fanout histogram
system.membus.snoop_fanout::min_value               0                       # Request fanout histogram
system.membus.snoop_fanout::max_value               0                       # Request fanout histogram
system.membus.snoop_fanout::total               56419                       # Request fanout histogram
system.membus.power_state.pwrStateResidencyTicks::UNDEFINED   1019607000                       # Cumulative time (in ticks) in various power states
system.membus.reqLayer2.occupancy            74430000                       # Layer occupancy (ticks)
system.membus.reqLayer2.utilization               7.3                       # Layer utilization (%)
system.membus.respLayer0.occupancy           10084500                       # Layer occupancy (ticks)
system.membus.respLayer0.utilization              1.0                       # Layer utilization (%)
system.membus.respLayer1.occupancy          103457248                       # Layer occupancy (ticks)
system.membus.respLayer1.utilization             10.1                       # Layer utilization (%)

---------- End Simulation Statistics   ----------
